* File: Gal_LFSR.pex.spi.pex
* Created: Thu Dec  5 17:36:50 2024
* Program "Calibre xRC"
* Version "v2016.4_15.11"
* Nominal Temperature: 27C
* Circuit Temperature: 27C
* 
.subckt PM_GAL_LFSR%NET093 66 71 78 82 86 90 94 98 102 106
c0 185 0 0.289278f
c1 181 0 0.0605579f
c2 177 0 0.124937f
c3 158 0 0.27967f
c4 133 0 0.156038f
c5 130 0 0.115542f
c6 128 0 0.166948f
c7 124 0 0.143301f
c8 123 0 0.106447f
c9 118 0 0.106471f
c10 116 0 0.143389f
c11 112 0 0.146227f
c12 111 0 0.117197f
c13 106 0 0.0947704f
c14 102 0 0.0935778f
c15 98 0 0.0895132f
c16 94 0 0.0948578f
c17 90 0 0.0950034f
c18 86 0 0.0896417f
c19 82 0 0.165122f
c20 78 0 0.0880881f
c21 74 0 0.167589f
c22 73 0 0.00401324f
c23 69 0 0.181696f
c24 64 0 0.158066f
c25 61 0 0.0313242f
c26 60 0 0.075431f
c27 57 0 0.126682f
c28 54 0 0.0283108f
c29 53 0 0.0211431f
c30 50 0 0.137449f
c31 47 0 0.023507f
c32 46 0 0.0186077f
c33 43 0 0.118515f
c34 40 0 0.00512285f
c35 39 0 0.00676256f
c36 29 0 0.0171293f
c37 27 0 0.0159642f
c38 26 0 0.613752f
c39 23 0 0.138311f
c40 21 0 0.470963f
c41 19 0 0.0300924f
c42 18 0 0.176288f
c43 16 0 0.100869f
c44 5 0 0.0248856f
r45 127 130 6.12766
r46 127 128 13.2552
r47 123 124 13.2552
r48 120 123 6.12766
r49 115 118 6.12766
r50 115 116 13.2552
r51 112 133 8
r52 111 112 13.2552
r53 108 111 6.14681
r54 104 130 4.73303
r55 104 106 23.25
r56 100 130 4.73303
r57 100 102 24
r58 96 120 4.73303
r59 96 98 23.25
r60 92 120 4.73303
r61 92 94 24
r62 88 118 4.73303
r63 88 90 24
r64 84 118 4.73303
r65 84 86 23.25
r66 80 108 4.73303
r67 80 82 56.5
r68 76 108 4.73303
r69 76 78 24
r70 73 74 16.3327
r71 71 73 4.608
r72 69 158 0.0386795
r73 68 69 5.44423
r74 66 68 1.28
r75 64 128 8
r76 61 185 8
r77 60 64 8
r78 60 61 8
r79 57 124 8
r80 54 181 8
r81 53 57 8
r82 53 54 8
r83 50 116 8
r84 47 177 8
r85 46 50 8
r86 46 47 8
r87 43 69 8
r88 40 173 8
r89 39 43 8
r90 39 40 8
r91 28 185 0.888789
r92 28 29 0.00908572
r93 26 173 1.14082
r94 26 27 0.00929146
r95 25 181 0.152905
r96 25 27 0.0250781
r97 24 177 0.280745
r98 22 29 0.0253043
r99 22 23 0.353724
r100 21 29 0.0253043
r101 20 27 0.0250781
r102 20 21 1.0348
r103 19 24 0.0363187
r104 18 23 0.0364356
r105 18 19 0.229211
r106 16 74 0.0754194
r107 12 16 0.039854
r108 12 158 0.327945
r109 6 133 0.1586
r110 5 43 0.17368
r111 5 6 0.0363174
.ends

.subckt PM_GAL_LFSR%Q[8] 83 88 93 100 104 108 112 116 120 124 128 181
c0 213 0 0.0118993f
c1 207 0 0.271398f
c2 203 0 0.678756f
c3 199 0 0.0461093f
c4 152 0 0.144201f
c5 151 0 0.106254f
c6 146 0 0.149059f
c7 145 0 0.107476f
c8 140 0 0.108042f
c9 138 0 0.148096f
c10 134 0 0.110657f
c11 132 0 0.125539f
c12 128 0 0.088696f
c13 124 0 0.0948918f
c14 120 0 0.0886724f
c15 116 0 0.0920487f
c16 112 0 0.0927348f
c17 108 0 0.091174f
c18 104 0 0.085296f
c19 100 0 0.182879f
c20 91 0 0.153341f
c21 86 0 0.263199f
c22 85 0 0.0414713f
c23 81 0 0.141634f
c24 78 0 0.0151677f
c25 77 0 0.0322877f
c26 74 0 0.181081f
c27 71 0 0.0253477f
c28 70 0 0.0219648f
c29 67 0 0.181681f
c30 64 0 0.0258714f
c31 63 0 0.0213534f
c32 60 0 0.0413065f
c33 57 0 0.0268167f
c34 56 0 0.0175753f
c35 53 0 0.0937602f
c36 50 0 0.0278167f
c37 49 0 0.0756141f
c38 36 0 0.011958f
c39 34 0 0.0362973f
c40 32 0 0.401633f
c41 31 0 0.02724f
c42 30 0 0.0225605f
c43 29 0 0.0212097f
c44 28 0 0.420263f
c45 27 0 0.0357069f
c46 25 0 0.824191f
c47 23 0 0.0144297f
c48 18 0 0.225941f
c49 17 0 0.386416f
c50 15 0 0.0437265f
r51 210 213 0.0591915
r52 162 181 0.0921831
r53 151 152 13.2552
r54 148 151 6.12766
r55 145 146 13.2552
r56 142 145 6.12766
r57 137 140 6.2234
r58 137 138 13.2552
r59 131 134 6.10851
r60 131 132 13.2552
r61 126 148 4.73303
r62 126 128 23.25
r63 122 148 4.73303
r64 122 124 24
r65 118 142 4.73303
r66 118 120 24
r67 114 142 4.73303
r68 114 116 23.25
r69 110 140 4.73303
r70 110 112 23.5
r71 106 140 4.73303
r72 106 108 23.75
r73 102 134 4.73303
r74 102 104 24
r75 98 134 4.73303
r76 98 100 56.5
r77 95 96 16.3327
r78 93 95 4.572
r79 90 91 5.44423
r80 88 90 1.27
r81 85 86 5.44423
r82 83 85 1.28
r83 81 152 8
r84 78 207 8
r85 77 81 8
r86 77 78 8
r87 74 146 8
r88 71 217 8
r89 70 74 8
r90 70 71 8
r91 67 138 8
r92 64 203 8
r93 63 67 8
r94 63 64 8
r95 60 132 8
r96 57 213 8
r97 56 60 8
r98 56 57 8
r99 53 162 1.33333
r100 50 199 1.33333
r101 49 53 1.33333
r102 49 50 1.33333
r103 37 207 0.741277
r104 35 203 1.43069
r105 35 36 0.0043287
r106 34 199 0.0224803
r107 33 217 0.0172988
r108 32 37 0.036438
r109 32 33 1.0575
r110 30 217 0.0191392
r111 30 31 0.0802128
r112 28 31 0.0363174
r113 28 29 1.70314
r114 27 29 0.0365787
r115 26 210 0.00864249
r116 26 27 0.100309
r117 25 210 0.00864249
r118 24 36 0.0310961
r119 24 25 2.47722
r120 23 36 0.0310961
r121 22 34 0.0483068
r122 22 23 0.0545679
r123 18 91 0.0352418
r124 17 96 7.04225e-05
r125 17 181 0.00387324
r126 17 18 0.315921
r127 16 86 0.00338264
r128 15 91 0.00338264
r129 15 16 0.0729787
.ends

.subckt PM_GAL_LFSR%RESET 80 84 88 92 96 100 104 108 203
c0 156 0 0.123213f
c1 155 0 0.116887f
c2 150 0 0.114709f
c3 148 0 0.107601f
c4 144 0 0.110194f
c5 143 0 0.11514f
c6 138 0 0.136914f
c7 137 0 0.118792f
c8 132 0 0.115161f
c9 130 0 0.110194f
c10 126 0 0.118792f
c11 124 0 0.137022f
c12 120 0 0.107493f
c13 119 0 0.115154f
c14 114 0 0.109395f
c15 113 0 0.112813f
c16 108 0 0.151423f
c17 104 0 0.151491f
c18 100 0 0.16269f
c19 96 0 0.166571f
c20 92 0 0.165949f
c21 88 0 0.169903f
c22 84 0 0.155214f
c23 80 0 0.150742f
c24 76 0 0.0359531f
c25 72 0 3.67238f
c26 71 0 1.36393f
c27 64 0 0.0474453f
c28 63 0 0.287157f
c29 56 0 0.067837f
c30 55 0 0.746637f
c31 52 0 0.039727f
c32 47 0 0.256326f
c33 44 0 0.067837f
c34 37 0 0.0518077f
c35 36 0 0.78667f
c36 33 0 0.0352181f
c37 26 0 0.083138f
c38 25 0 0.844711f
r39 155 156 13.2552
r40 152 155 6.2234
r41 147 150 6.12766
r42 147 148 13.2552
r43 143 144 13.2552
r44 140 143 6.12766
r45 137 138 13.2552
r46 134 137 6.12766
r47 129 132 6.12766
r48 129 130 13.2552
r49 123 126 6.12766
r50 123 124 13.2552
r51 119 120 13.2552
r52 116 119 6.14681
r53 113 114 13.2552
r54 110 113 6.14681
r55 106 152 4.73303
r56 106 108 56.5
r57 102 150 4.73303
r58 102 104 56.5
r59 98 140 4.73303
r60 98 100 56.5
r61 94 134 4.73303
r62 94 96 56.5
r63 90 132 4.73303
r64 90 92 56.5
r65 86 126 4.73303
r66 86 88 56.5
r67 82 116 4.73303
r68 82 84 56.5
r69 78 110 4.73303
r70 78 80 56.5
r71 76 156 8
r72 75 76 8
r73 71 75 1.02635
r74 71 72 8
r75 68 72 0.64545
r76 67 68 8
r77 64 148 8
r78 63 67 0.31265
r79 63 64 8
r80 60 68 0.3913
r81 60 203 0.4927
r82 59 60 8
r83 56 144 8
r84 55 59 1.04065
r85 55 56 8
r86 52 138 8
r87 51 52 8
r88 48 203 0.06825
r89 47 51 0.29835
r90 47 48 8
r91 44 130 8
r92 43 44 8
r93 41 48 0.28665
r94 40 43 1.02635
r95 40 41 8
r96 37 124 8
r97 36 40 0.31265
r98 36 37 8
r99 33 120 8
r100 32 33 8
r101 30 41 0.95212
r102 29 32 0.29835
r103 29 30 8
r104 26 114 8
r105 25 29 1.04065
r106 25 26 8
.ends

.subckt PM_GAL_LFSR%CLK 90 93 96 99 103 106 110 114 118 122 126 130 133 137 140
+ 143 146 149 152 156 160 164 167 171 174 177 181 184 188 192 196 199 425
c0 416 0 0.507982f
c1 404 0 0.54798f
c2 392 0 0.551089f
c3 369 0 0.542367f
c4 357 0 0.556601f
c5 345 0 0.553314f
c6 333 0 0.532542f
c7 322 0 0.126001f
c8 321 0 0.143941f
c9 318 0 0.0961066f
c10 316 0 0.11253f
c11 313 0 0.0941137f
c12 310 0 0.106723f
c13 308 0 0.109815f
c14 306 0 0.0937888f
c15 302 0 0.11253f
c16 301 0 0.0960092f
c17 296 0 0.126319f
c18 295 0 0.144182f
c19 293 0 0.126299f
c20 290 0 0.14426f
c21 288 0 0.0959558f
c22 286 0 0.112509f
c23 282 0 0.0937888f
c24 281 0 0.109747f
c25 276 0 0.109864f
c26 274 0 0.0937786f
c27 270 0 0.11253f
c28 269 0 0.0961066f
c29 265 0 0.126002f
c30 262 0 0.143941f
c31 260 0 0.126006f
c32 259 0 0.148501f
c33 256 0 0.126299f
c34 255 0 0.144724f
c35 252 0 0.096084f
c36 250 0 0.112533f
c37 246 0 0.0960839f
c38 244 0 0.11253f
c39 240 0 0.0937801f
c40 239 0 0.110958f
c41 235 0 0.0941045f
c42 232 0 0.107451f
c43 230 0 0.109933f
c44 228 0 0.0937799f
c45 224 0 0.111018f
c46 222 0 0.0937799f
c47 218 0 0.11253f
c48 217 0 0.0960839f
c49 212 0 0.112533f
c50 211 0 0.096084f
c51 207 0 0.126291f
c52 204 0 0.145084f
c53 203 0 0.126004f
c54 200 0 0.148501f
c55 197 0 0.187359f
c56 194 0 0.148542f
c57 192 0 0.105512f
c58 188 0 0.110917f
c59 184 0 0.110289f
c60 179 0 0.190637f
c61 177 0 0.106035f
c62 172 0 0.147934f
c63 169 0 0.147934f
c64 167 0 0.105238f
c65 162 0 0.186752f
c66 160 0 0.110188f
c67 156 0 0.11021f
c68 152 0 0.102828f
c69 147 0 0.148723f
c70 144 0 0.188477f
c71 141 0 0.201447f
c72 138 0 0.191338f
c73 135 0 0.150112f
c74 133 0 0.106068f
c75 128 0 0.152768f
c76 126 0 0.106033f
c77 122 0 0.110551f
c78 118 0 0.110288f
c79 114 0 0.110742f
c80 110 0 0.111188f
c81 106 0 0.105294f
c82 101 0 0.148475f
c83 99 0 0.105653f
c84 94 0 0.149882f
c85 91 0 0.187357f
c86 88 0 0.201132f
c87 86 0 3.3447f
c88 81 0 0.598207f
c89 70 0 0.745997f
c90 63 0 0.533832f
c91 62 0 0.321106f
c92 51 0 1.00461f
c93 40 0 0.992575f
r94 413 416 0.25025
r95 401 404 0.1196
r96 384 388 0.1196
r97 373 377 0.25025
r98 361 365 0.1196
r99 349 353 0.1196
r100 342 345 0.1196
r101 330 333 0.1196
r102 322 416 8
r103 321 323 5.68228
r104 321 322 13.2552
r105 316 413 8
r106 315 318 6.12766
r107 315 316 13.2552
r108 313 408 8
r109 312 313 13.2552
r110 310 312 6.41425
r111 306 404 8
r112 305 308 6.12766
r113 305 306 13.2552
r114 302 401 8
r115 301 302 13.2552
r116 298 301 6.12766
r117 296 392 8
r118 295 297 5.68228
r119 295 296 13.2552
r120 293 396 8
r121 292 293 13.2552
r122 290 292 5.68228
r123 286 388 8
r124 285 288 6.12766
r125 285 286 13.2552
r126 282 384 8
r127 281 282 13.2552
r128 278 281 6.12766
r129 273 276 6.12766
r130 273 274 13.2552
r131 270 377 8
r132 269 270 13.2552
r133 266 269 6.12766
r134 265 373 8
r135 264 265 13.2552
r136 262 264 5.68228
r137 260 369 8
r138 259 261 5.68228
r139 259 260 13.2552
r140 256 357 8
r141 255 257 5.68228
r142 255 256 13.2552
r143 250 365 8
r144 249 252 6.10851
r145 249 250 13.2552
r146 244 353 8
r147 243 246 6.10851
r148 243 244 13.2552
r149 240 361 8
r150 239 240 13.2552
r151 236 239 6.14681
r152 235 349 8
r153 234 235 13.2552
r154 232 234 6.4343
r155 228 345 8
r156 227 230 6.10851
r157 227 228 13.2552
r158 222 333 8
r159 221 224 6.10851
r160 221 222 13.2552
r161 218 342 8
r162 217 218 13.2552
r163 214 217 6.14681
r164 212 330 8
r165 211 212 13.2552
r166 208 211 6.14681
r167 207 337 8
r168 206 207 13.2552
r169 204 206 5.70061
r170 203 325 8
r171 202 203 13.2552
r172 200 202 5.70061
r173 197 323 4.9326
r174 197 199 52.75
r175 194 318 4.73303
r176 194 196 52.75
r177 190 318 4.73303
r178 190 192 27.75
r179 186 308 4.73303
r180 186 188 27.75
r181 182 310 4.5257
r182 182 184 27.75
r183 179 297 4.9326
r184 179 181 52.75
r185 175 298 4.73303
r186 175 177 27.75
r187 172 298 4.73303
r188 172 174 52.75
r189 169 288 4.73303
r190 169 171 52.75
r191 165 288 4.73303
r192 165 167 27.75
r193 162 290 4.9326
r194 162 164 52.75
r195 158 276 4.73303
r196 158 160 27.75
r197 154 278 4.73303
r198 154 156 27.75
r199 150 266 4.73303
r200 150 152 27.75
r201 147 266 4.73303
r202 147 149 52.75
r203 144 262 4.9326
r204 144 146 52.75
r205 141 261 4.9326
r206 141 143 52.75
r207 138 257 4.9326
r208 138 140 52.75
r209 135 252 4.73303
r210 135 137 52.75
r211 131 252 4.73303
r212 131 133 27.75
r213 128 246 4.73303
r214 128 130 52.75
r215 124 246 4.73303
r216 124 126 27.75
r217 120 230 4.73303
r218 120 122 27.75
r219 116 224 4.73303
r220 116 118 27.75
r221 112 236 4.73303
r222 112 114 27.75
r223 108 232 4.5257
r224 108 110 27.75
r225 104 214 4.73303
r226 104 106 27.75
r227 101 214 4.73303
r228 101 103 52.75
r229 97 208 4.73303
r230 97 99 27.75
r231 94 208 4.73303
r232 94 96 52.75
r233 91 204 4.9326
r234 91 93 52.75
r235 88 200 4.9326
r236 88 90 52.75
r237 86 425 0.091
r238 85 86 8
r239 82 413 0.065
r240 82 408 0.0546
r241 81 85 0.93015
r242 81 82 8
r243 78 401 0.15145
r244 78 396 0.0988
r245 77 78 8
r246 75 392 0.1157
r247 75 388 0.13455
r248 74 77 0.7085
r249 74 75 8
r250 71 425 0.2704
r251 70 74 0.40885
r252 70 71 8
r253 67 71 0.2899
r254 66 67 8
r255 63 274 8
r256 63 377 0.1196
r257 62 66 0.22165
r258 62 63 8
r259 59 369 0.11687
r260 59 365 0.13325
r261 58 59 8
r262 56 67 0.95017
r263 55 58 0.40885
r264 55 56 8
r265 52 357 0.11687
r266 52 353 0.13325
r267 51 55 0.93015
r268 51 52 8
r269 48 342 0.1547
r270 48 337 0.09555
r271 47 48 8
r272 45 56 0.5629
r273 44 47 1.11735
r274 44 45 8
r275 41 330 0.1547
r276 41 325 0.09555
r277 40 44 0.22165
r278 40 41 8
.ends

.subckt PM_GAL_LFSR%VDD 144 149 150 151 156 161 166 171 176 181 186 191 196 201
+ 206 211 216 221 226 231 236 241 246 251 256 261 266 271 276 281 286 291 296
+ 301 306 311 316 321 326 331 336 341 346
c0 349 0 0.411326f
c1 348 0 0.01378f
c2 344 0 0.388964f
c3 339 0 0.259459f
c4 336 0 0.0287671f
c5 334 0 0.271686f
c6 333 0 0.00571324f
c7 329 0 0.288918f
c8 326 0 0.0547201f
c9 324 0 0.238856f
c10 323 0 0.0221575f
c11 319 0 0.223832f
c12 314 0 0.280679f
c13 309 0 0.259621f
c14 306 0 0.00600118f
c15 304 0 0.257416f
c16 303 0 0.0277559f
c17 299 0 0.254821f
c18 296 0 0.0288655f
c19 294 0 0.273096f
c20 293 0 0.00433352f
c21 289 0 0.284559f
c22 284 0 0.205367f
c23 279 0 0.293953f
c24 276 0 0.00812478f
c25 274 0 0.290499f
c26 273 0 0.0420117f
c27 269 0 0.267501f
c28 266 0 0.00535439f
c29 264 0 0.257746f
c30 263 0 0.0279502f
c31 259 0 0.227424f
c32 254 0 0.180205f
c33 249 0 0.303791f
c34 248 0 0.00812478f
c35 244 0 0.187965f
c36 239 0 0.221552f
c37 234 0 0.219853f
c38 233 0 0.00362747f
c39 229 0 0.250993f
c40 226 0 0.0286474f
c41 224 0 0.251005f
c42 221 0 0.0145815f
c43 219 0 0.264525f
c44 218 0 0.00600118f
c45 214 0 0.27212f
c46 213 0 0.0059405f
c47 209 0 0.269758f
c48 204 0 0.291537f
c49 201 0 0.00362747f
c50 199 0 0.278895f
c51 194 0 0.268159f
c52 189 0 0.266166f
c53 186 0 0.00590179f
c54 184 0 0.269003f
c55 181 0 0.00590179f
c56 179 0 0.252492f
c57 178 0 0.0296824f
c58 174 0 0.247258f
c59 173 0 0.0305502f
c60 169 0 0.198844f
c61 166 0 0.0422032f
c62 164 0 0.222971f
c63 161 0 0.0422032f
c64 159 0 0.208281f
c65 156 0 0.0422032f
c66 154 0 0.238252f
c67 151 0 0.0422032f
c68 147 0 0.0181964f
c69 141 0 0.0182f
c70 140 0 1.05724f
c71 135 0 0.0225388f
c72 133 0 0.0291919f
c73 131 0 0.0133884f
c74 129 0 0.0188747f
c75 127 0 0.0187608f
c76 125 0 0.0240214f
c77 123 0 0.0245488f
c78 121 0 0.014305f
c79 118 0 0.0248321f
c80 116 0 0.024022f
c81 114 0 0.0148544f
c82 112 0 0.0188383f
c83 110 0 0.0168549f
c84 109 0 0.30698f
c85 107 0 0.0295455f
c86 105 0 0.0234624f
c87 104 0 0.211253f
c88 102 0 0.0211542f
c89 99 0 0.0136717f
c90 96 0 0.00622718f
c91 93 0 8.54989e-19
c92 90 0 0.0160989f
c93 88 0 0.0185014f
c94 86 0 0.0192729f
c95 83 0 0.0166224f
c96 80 0 0.0156437f
c97 77 0 0.0192616f
c98 74 0 0.0257284f
c99 72 0 0.0160214f
c100 70 0 0.0401701f
c101 67 0 0.0446616f
c102 63 0 0.323374f
c103 61 0 0.0385519f
c104 59 0 0.354004f
c105 57 0 0.0996353f
c106 55 0 0.0834951f
c107 53 0 0.0536315f
c108 51 0 0.113078f
c109 49 0 0.0560383f
c110 47 0 0.0563707f
c111 45 0 0.262208f
c112 43 0 0.145873f
c113 41 0 0.0534171f
c114 39 0 0.0486524f
c115 37 0 0.0850422f
c116 35 0 0.050704f
c117 33 0 0.0382666f
c118 31 0 0.0376837f
c119 29 0 0.259111f
c120 27 0 0.251263f
c121 25 0 0.0571519f
c122 23 0 0.0685616f
c123 18 0 0.156108f
c124 13 0 0.161156f
c125 11 0 0.0567312f
c126 9 0 0.0556349f
c127 7 0 0.234873f
c128 5 0 0.248534f
r129 348 349 5.44423
r130 346 348 1.275
r131 343 344 5.44423
r132 341 343 1.275
r133 338 339 5.44423
r134 336 338 1.275
r135 333 334 5.44423
r136 331 333 1.275
r137 328 329 5.44423
r138 326 328 1.275
r139 323 324 5.44423
r140 321 323 1.275
r141 318 319 5.44423
r142 316 318 1.275
r143 313 314 5.44423
r144 311 313 1.275
r145 308 309 5.44423
r146 306 308 1.275
r147 303 304 5.44423
r148 301 303 1.275
r149 298 299 5.44423
r150 296 298 1.275
r151 293 294 5.44423
r152 291 293 1.275
r153 288 289 5.44423
r154 286 288 1.275
r155 283 284 5.44423
r156 281 283 1.275
r157 278 279 5.44423
r158 276 278 1.275
r159 273 274 5.44423
r160 271 273 1.275
r161 268 269 5.44423
r162 266 268 1.275
r163 263 264 5.44423
r164 261 263 1.275
r165 258 259 5.44423
r166 256 258 1.275
r167 253 254 5.44423
r168 251 253 1.275
r169 248 249 5.44423
r170 246 248 1.275
r171 243 244 5.44423
r172 241 243 1.275
r173 238 239 5.44423
r174 236 238 1.275
r175 233 234 5.44423
r176 231 233 1.275
r177 228 229 5.44423
r178 226 228 1.27
r179 223 224 5.44423
r180 221 223 1.27
r181 218 219 5.44423
r182 216 218 1.28
r183 213 214 5.44423
r184 211 213 1.28
r185 208 209 5.44423
r186 206 208 1.27
r187 203 204 5.44423
r188 201 203 1.27
r189 198 199 5.44423
r190 196 198 1.28
r191 193 194 5.44423
r192 191 193 1.28
r193 188 189 5.44423
r194 186 188 1.27
r195 183 184 5.44423
r196 181 183 1.27
r197 178 179 5.44423
r198 176 178 1.28
r199 173 174 5.44423
r200 171 173 1.28
r201 168 169 5.44423
r202 166 168 1.27
r203 163 164 5.44423
r204 161 163 1.27
r205 158 159 5.44423
r206 156 158 1.27
r207 153 154 5.44423
r208 151 153 1.27
r209 150 355 0.347504
r210 149 361 0.355059
r211 146 147 8
r212 144 146 1.0608
r213 140 144 0.2782
r214 140 141 8
r215 137 344 0.217368
r216 136 349 0.201711
r217 134 339 0.201711
r218 134 135 0.0121527
r219 132 334 0.201711
r220 132 133 0.0121527
r221 130 329 0.201711
r222 130 131 0.0121527
r223 128 324 0.217368
r224 128 129 0.0121527
r225 126 319 0.201711
r226 126 127 0.0121527
r227 124 314 0.201711
r228 124 125 0.0121527
r229 122 309 0.201711
r230 122 123 0.0121527
r231 120 299 0.201711
r232 120 121 0.0213555
r233 119 304 0.201711
r234 119 121 0.0213555
r235 117 294 0.201711
r236 117 118 0.0121527
r237 115 289 0.201711
r238 115 116 0.0121527
r239 113 279 0.201711
r240 113 114 0.0121527
r241 111 284 0.217368
r242 111 112 0.0121527
r243 109 355 0.177234
r244 109 110 0.0247498
r245 108 274 0.201711
r246 108 110 0.0121527
r247 106 269 0.201711
r248 106 107 0.0121527
r249 104 361 0.00744681
r250 104 105 0.0247498
r251 103 264 0.201711
r252 103 105 0.0121527
r253 101 361 0.269574
r254 101 102 0.0247498
r255 100 259 0.201711
r256 100 102 0.0121527
r257 98 355 0.256915
r258 98 99 0.0247498
r259 97 254 0.217368
r260 97 99 0.0121527
r261 95 249 0.1925
r262 95 96 0.0213555
r263 94 244 0.208158
r264 94 96 0.0213555
r265 92 239 0.201711
r266 92 93 0.0213555
r267 91 234 0.217368
r268 91 93 0.0213555
r269 89 229 0.201711
r270 89 90 0.0121527
r271 87 224 0.201711
r272 87 88 0.0121527
r273 85 219 0.201711
r274 85 86 0.0213555
r275 84 209 0.1925
r276 84 86 0.0213555
r277 82 214 0.201711
r278 82 83 0.0213555
r279 81 204 0.201711
r280 81 83 0.0213555
r281 79 199 0.201711
r282 79 80 0.0213555
r283 78 189 0.201711
r284 78 80 0.0213555
r285 76 194 0.1925
r286 76 77 0.0213555
r287 75 184 0.201711
r288 75 77 0.0213555
r289 73 179 0.201711
r290 73 74 0.0121527
r291 71 174 0.201711
r292 71 72 0.0121527
r293 69 169 0.208158
r294 69 70 0.0352418
r295 68 164 0.1925
r296 68 70 0.0352418
r297 66 159 0.208158
r298 66 67 0.0352418
r299 65 154 0.1925
r300 65 67 0.0352418
r301 64 135 0.0247498
r302 63 136 0.0336058
r303 63 64 0.277021
r304 62 133 0.0247498
r305 61 135 0.0247498
r306 61 62 0.0729787
r307 60 131 0.0247498
r308 59 137 0.039684
r309 59 60 0.434149
r310 58 129 0.0247498
r311 57 133 0.0247498
r312 57 58 0.121383
r313 56 127 0.0247498
r314 55 131 0.0247498
r315 55 56 0.0968085
r316 54 125 0.0247498
r317 53 129 0.0247498
r318 53 54 0.0990425
r319 52 123 0.0247498
r320 51 127 0.0247498
r321 51 52 0.123617
r322 50 121 0.013931
r323 49 123 0.0247498
r324 49 50 0.0729787
r325 48 118 0.0247498
r326 47 121 0.013931
r327 47 48 0.0729787
r328 46 116 0.0247498
r329 45 125 0.0247498
r330 45 46 0.278511
r331 44 114 0.0247498
r332 43 118 0.0247498
r333 43 44 0.123617
r334 42 112 0.0247498
r335 41 116 0.0247498
r336 41 42 0.0990425
r337 40 110 0.0247498
r338 39 114 0.0247498
r339 39 40 0.0968085
r340 38 107 0.0247498
r341 37 112 0.0247498
r342 37 38 0.121383
r343 36 105 0.0247498
r344 35 107 0.0247498
r345 35 36 0.0729787
r346 34 96 0.013931
r347 33 102 0.0247498
r348 33 34 0.0752128
r349 32 93 0.013931
r350 31 99 0.0247498
r351 31 32 0.0737234
r352 30 90 0.0247498
r353 29 96 0.013931
r354 29 30 0.277021
r355 28 88 0.0247498
r356 27 93 0.013931
r357 27 28 0.277021
r358 26 86 0.013931
r359 25 90 0.0247498
r360 25 26 0.0729787
r361 24 83 0.013931
r362 23 88 0.0247498
r363 23 24 0.0729787
r364 21 147 8
r365 19 80 0.013931
r366 19 21 0.128234
r367 18 86 0.013931
r368 18 21 0.122723
r369 16 141 8
r370 14 77 0.013931
r371 14 16 0.128234
r372 13 83 0.013931
r373 13 16 0.122723
r374 12 74 0.0247498
r375 11 80 0.013931
r376 11 12 0.0729787
r377 10 72 0.0247498
r378 9 77 0.013931
r379 9 10 0.0729787
r380 8 70 0.00338264
r381 7 74 0.0247498
r382 7 8 0.277021
r383 6 67 0.00338264
r384 5 72 0.0247498
r385 5 6 0.277021
.ends

.subckt PM_GAL_LFSR%NET099 24 29 34 39 46 50
c0 72 0 0.362767f
c1 68 0 0.149563f
c2 56 0 0.11428f
c3 54 0 0.145929f
c4 50 0 0.0883747f
c5 46 0 0.166295f
c6 42 0 0.138753f
c7 34 0 0.00401324f
c8 32 0 0.118754f
c9 27 0 0.441786f
c10 17 0 0.386689f
c11 13 0 0.268235f
c12 7 0 0.185426f
c13 6 0 0.252135f
c14 5 0 0.0686653f
c15 4 0 0.118318f
r16 54 68 8
r17 53 56 6.12766
r18 53 54 13.2552
r19 48 56 4.73303
r20 48 50 24
r21 44 56 4.73303
r22 44 46 56.5
r23 42 72 8
r24 41 42 16.3327
r25 39 41 4.88298
r26 36 37 16.3327
r27 34 36 4.59
r28 31 32 16.3327
r29 29 31 4.88298
r30 27 59 8
r31 26 27 5.44423
r32 24 26 1.275
r33 22 59 0.04745
r34 21 22 8
r35 18 32 8
r36 17 21 0.4459
r37 17 18 8
r38 14 27 0.373014
r39 13 37 0.0752688
r40 13 14 0.039854
r41 8 68 0.1586
r42 7 22 0.1261
r43 7 8 0.0363174
r44 6 18 0.0728
r45 5 72 0.1677
r46 4 6 0.0369036
r47 3 5 0.0369036
r48 3 4 0.1495
.ends

.subckt PM_GAL_LFSR%VSS 90 98 135 140 145 150 155 160 165 170 175 180 185 190
+ 195 200 205 210 215 220 225 230 235 240 245 250 255 260 265 270 275 280 285
+ 290
c0 409 0 0.587667f
c1 408 0 0.379053f
c2 405 0 4.82315f
c3 293 0 0.114422f
c4 288 0 0.1171f
c5 283 0 0.111851f
c6 282 0 0.017f
c7 278 0 0.134955f
c8 275 0 0.00469667f
c9 273 0 0.158065f
c10 268 0 0.134955f
c11 267 0 0.00469667f
c12 263 0 0.111854f
c13 260 0 0.017f
c14 258 0 0.114164f
c15 253 0 0.12495f
c16 248 0 0.121153f
c17 247 0 0.017f
c18 243 0 0.147265f
c19 240 0 0.00469667f
c20 238 0 0.140938f
c21 233 0 0.145509f
c22 232 0 0.00477161f
c23 228 0 0.122953f
c24 225 0 0.0123403f
c25 223 0 0.124563f
c26 218 0 0.156468f
c27 213 0 0.157544f
c28 208 0 0.134114f
c29 203 0 0.118437f
c30 200 0 0.00262002f
c31 198 0 0.116202f
c32 195 0 5.70794e-19
c33 193 0 0.125462f
c34 192 0 0.0161277f
c35 188 0 0.121371f
c36 187 0 0.017f
c37 183 0 0.147896f
c38 180 0 0.00469667f
c39 178 0 0.134955f
c40 175 0 0.00469667f
c41 173 0 0.149465f
c42 172 0 0.00469667f
c43 168 0 0.143739f
c44 167 0 0.00469667f
c45 163 0 0.124858f
c46 160 0 0.017f
c47 158 0 0.11186f
c48 155 0 0.0113052f
c49 153 0 0.122556f
c50 152 0 5.39355e-19
c51 148 0 0.118941f
c52 143 0 0.122103f
c53 140 0 0.00976787f
c54 138 0 0.193077f
c55 135 0 0.0117231f
c56 132 0 0.0564223f
c57 122 0 0.0423937f
c58 117 0 0.0133884f
c59 107 0 0.0133884f
c60 106 0 0.0409584f
c61 98 0 0.0364565f
c62 96 0 0.0228855f
c63 93 0 0.014737f
c64 87 0 0.0136982f
c65 86 0 1.96719f
c66 83 0 0.0133884f
c67 81 0 0.0133884f
c68 79 0 0.0133884f
c69 77 0 0.0133884f
c70 74 0 0.0133884f
c71 73 0 0.0342514f
c72 71 0 0.773728f
c73 66 0 0.783695f
c74 65 0 0.035685f
c75 63 0 0.0151901f
c76 60 0 0.0151901f
c77 58 0 0.0133884f
c78 56 0 0.151748f
c79 51 0 0.0771391f
c80 46 0 0.250241f
c81 41 0 0.414173f
c82 37 0 0.0365775f
c83 35 0 0.326746f
c84 33 0 0.20869f
c85 31 0 0.20869f
c86 29 0 0.132757f
c87 26 0 0.0346103f
c88 25 0 0.332654f
c89 19 0 0.366433f
c90 17 0 0.213884f
c91 15 0 0.208708f
c92 13 0 0.036357f
c93 10 0 0.035298f
c94 9 0 0.333962f
r95 404 405 0.0277419
r96 403 404 0.00596774
r97 402 403 0.0666129
r98 401 402 0.00596774
r99 400 401 0.0277419
r100 397 398 0.0282258
r101 394 395 0.0277419
r102 393 394 0.00596774
r103 392 393 0.0666129
r104 391 392 0.00596774
r105 390 391 0.0277419
r106 388 390 0.0725806
r107 365 405 0.0661036
r108 362 404 0.0661036
r109 359 403 0.0661036
r110 354 402 0.0661036
r111 351 401 0.0661036
r112 348 400 0.0661036
r113 345 398 0.0661036
r114 342 397 0.0661036
r115 335 395 0.0661036
r116 330 394 0.0661036
r117 327 393 0.0661036
r118 319 392 0.0661036
r119 316 391 0.0661036
r120 311 390 0.0661036
r121 304 388 0.0661036
r122 292 293 16.3327
r123 290 292 4.59
r124 287 288 16.3327
r125 285 287 4.59
r126 282 283 16.3327
r127 280 282 4.59
r128 277 278 16.3327
r129 275 277 4.59
r130 272 273 16.3327
r131 270 272 4.59
r132 268 372 0.100395
r133 267 268 16.3327
r134 265 267 4.59
r135 262 263 16.3327
r136 260 262 4.59
r137 257 258 16.3327
r138 255 257 4.59
r139 253 365 0.100395
r140 252 253 16.3327
r141 250 252 4.59
r142 248 362 0.100395
r143 247 248 16.3327
r144 245 247 4.59
r145 243 359 0.100395
r146 242 243 16.3327
r147 240 242 4.59
r148 237 238 16.3327
r149 235 237 4.59
r150 233 354 0.100395
r151 232 233 16.3327
r152 230 232 4.59
r153 228 351 0.100395
r154 227 228 16.3327
r155 225 227 4.59
r156 223 348 0.100395
r157 222 223 16.3327
r158 220 222 4.59
r159 218 345 0.100395
r160 217 218 16.3327
r161 215 217 4.59
r162 213 342 0.100395
r163 212 213 16.3327
r164 210 212 4.59
r165 207 208 16.3327
r166 205 207 4.59
r167 202 203 16.3327
r168 200 202 4.572
r169 198 335 0.100395
r170 197 198 16.3327
r171 195 197 4.572
r172 192 193 16.3327
r173 190 192 4.608
r174 188 330 0.100395
r175 187 188 16.3327
r176 185 187 4.608
r177 183 327 0.100395
r178 182 183 16.3327
r179 180 182 4.572
r180 178 324 0.100395
r181 177 178 16.3327
r182 175 177 4.572
r183 172 173 16.3327
r184 170 172 4.608
r185 168 319 0.100395
r186 167 168 16.3327
r187 165 167 4.608
r188 163 316 0.100395
r189 162 163 16.3327
r190 160 162 4.572
r191 157 158 16.3327
r192 155 157 4.572
r193 153 311 0.100395
r194 152 153 16.3327
r195 150 152 4.608
r196 147 148 16.3327
r197 145 147 4.608
r198 142 143 16.3327
r199 140 142 4.572
r200 138 304 0.100395
r201 137 138 16.3327
r202 135 137 4.572
r203 133 409 0.0735789
r204 133 408 0.0679202
r205 132 133 5.44423
r206 127 400 0.0548387
r207 127 398 0.0177419
r208 126 127 0.480374
r209 122 123 0.653308
r210 117 324 0.0121527
r211 116 117 1.08885
r212 111 397 0.0177419
r213 111 395 0.0548387
r214 107 372 0.0121527
r215 106 107 1.08885
r216 100 101 0.653308
r217 98 132 174.83
r218 98 126 26.0426
r219 98 122 89.9043
r220 98 116 129.236
r221 98 111 0.49493
r222 98 106 129.255
r223 98 100 89.8851
r224 95 96 8
r225 92 95 1.18397
r226 92 93 8
r227 90 92 0.0814019
r228 86 90 1.03077
r229 86 87 8
r230 82 293 0.100395
r231 82 83 0.0121527
r232 80 288 0.100395
r233 80 81 0.0121527
r234 78 283 0.100395
r235 78 79 0.0121527
r236 76 278 0.100395
r237 76 77 0.0121527
r238 75 273 0.100395
r239 73 123 0.00595745
r240 73 74 0.0247498
r241 72 263 0.100395
r242 72 74 0.0121527
r243 70 123 0.0655319
r244 70 71 0.0247498
r245 69 258 0.100395
r246 69 71 0.0121527
r247 68 238 0.100395
r248 67 208 0.100395
r249 65 101 0.065383
r250 65 66 0.0247498
r251 64 203 0.100395
r252 64 66 0.0121527
r253 62 101 0.00610638
r254 62 63 0.0247498
r255 61 193 0.100395
r256 61 63 0.0121527
r257 59 173 0.100395
r258 59 60 0.0121527
r259 57 158 0.100395
r260 57 58 0.0121527
r261 55 148 0.100395
r262 55 56 0.0121527
r263 54 143 0.100395
r264 51 87 8
r265 49 83 0.0247498
r266 49 51 0.0878723
r267 46 409 0.208783
r268 46 93 8
r269 41 96 8
r270 39 81 0.0247498
r271 39 41 0.42
r272 38 79 0.0247498
r273 37 81 0.0247498
r274 37 38 0.0714894
r275 36 77 0.0247498
r276 35 83 0.0247498
r277 35 36 0.434149
r278 34 107 0.0247498
r279 33 79 0.0247498
r280 33 34 0.278511
r281 32 74 0.0247498
r282 31 77 0.0247498
r283 31 32 0.278511
r284 30 405 0.0718629
r285 29 75 0.039684
r286 29 30 0.153404
r287 28 405 0.0699015
r288 28 408 0.334783
r289 26 68 0.039684
r290 25 107 0.0247498
r291 25 26 0.434149
r292 20 117 0.0247498
r293 19 67 0.039684
r294 19 20 0.434149
r295 18 60 0.0247498
r296 17 63 0.0247498
r297 17 18 0.278511
r298 16 58 0.0247498
r299 15 117 0.0247498
r300 15 16 0.278511
r301 14 56 0.0247498
r302 13 58 0.0247498
r303 13 14 0.0714894
r304 10 54 0.039684
r305 9 60 0.0247498
r306 9 10 0.434149
.ends

.subckt PM_GAL_LFSR%QBAR[4] 8 13 20 24
c0 37 0 0.135079f
c1 33 0 0.209265f
c2 30 0 0.146236f
c3 29 0 0.117133f
c4 24 0 0.172983f
c5 20 0 0.089883f
c6 16 0 0.168105f
c7 15 0 0.0024112f
c8 11 0 0.458846f
c9 6 0 0.101199f
c10 2 0 0.0635653f
r11 30 33 8
r12 29 30 13.2552
r13 26 29 6.14681
r14 22 26 4.73303
r15 22 24 56.5
r16 18 26 4.73303
r17 18 20 24
r18 15 16 16.3327
r19 13 15 4.608
r20 11 37 8
r21 10 11 5.44423
r22 8 10 1.28
r23 7 11 0.373014
r24 6 16 0.0754194
r25 6 7 0.039854
r26 3 33 0.1586
r27 2 37 0.17368
r28 2 3 0.0363174
.ends

.subckt PM_GAL_LFSR%XI13/NET31 8 13 20 24
c0 37 0 0.611495f
c1 33 0 0.120389f
c2 30 0 0.121721f
c3 28 0 0.14403f
c4 24 0 0.172534f
c5 20 0 0.101066f
c6 16 0 0.170631f
c7 11 0 0.485303f
c8 10 0 0.00307445f
c9 6 0 0.0875776f
c10 2 0 0.0438413f
r11 28 33 8
r12 27 30 6.20426
r13 27 28 13.2552
r14 22 30 4.73303
r15 22 24 56.5
r16 18 30 4.73303
r17 18 20 24
r18 16 37 4
r19 15 16 16.3327
r20 13 15 4.608
r21 10 11 5.44423
r22 8 10 1.28
r23 7 11 0.367973
r24 6 16 0.128108
r25 6 7 0.0397731
r26 3 33 0.0611
r27 2 37 0.47983
r28 2 3 0.0363174
.ends

.subckt PM_GAL_LFSR%XI17/NET31 8 13 20 24
c0 37 0 0.744658f
c1 33 0 0.113838f
c2 30 0 0.120988f
c3 28 0 0.144039f
c4 24 0 0.17346f
c5 20 0 0.101873f
c6 16 0 0.170916f
c7 11 0 0.469384f
c8 6 0 0.0876831f
c9 2 0 0.0620285f
r10 28 33 8
r11 27 30 6.20426
r12 27 28 13.2552
r13 22 30 4.73303
r14 22 24 56.5
r15 18 30 4.73303
r16 18 20 24
r17 16 37 4
r18 15 16 16.3327
r19 13 15 4.608
r20 10 11 5.44423
r21 8 10 1.28
r22 7 11 0.367973
r23 6 16 0.128108
r24 6 7 0.0397731
r25 3 33 0.0611
r26 2 37 0.47983
r27 2 3 0.0363174
.ends

.subckt PM_GAL_LFSR%XI16/NET31 11 16 23 27
c0 38 0 0.116007f
c1 33 0 0.144184f
c2 32 0 0.120988f
c3 27 0 0.101905f
c4 23 0 0.175273f
c5 16 0 4.8578e-20
c6 14 0 0.460433f
c7 7 0 0.0887299f
c8 6 0 0.172604f
c9 2 0 0.950248f
r10 33 38 8
r11 32 33 13.2552
r12 29 32 6.24255
r13 25 29 4.73303
r14 25 27 24
r15 21 29 4.73303
r16 21 23 56.5
r17 18 19 16.3327
r18 16 18 4.572
r19 13 14 5.44423
r20 11 13 1.27
r21 9 10 4
r22 7 14 0.367973
r23 7 9 0.0220254
r24 6 19 0.127806
r25 6 9 0.0177477
r26 3 38 0.0611
r27 2 10 0.34632
r28 2 3 0.0363174
.ends

.subckt PM_GAL_LFSR%XI20/NET31 11 16 23 27
c0 38 0 0.112818f
c1 33 0 0.144077f
c2 32 0 0.120988f
c3 27 0 0.100432f