* File: RIS.pex.spi.pex
* Created: Fri Dec 27 02:29:37 2024
* Program "Calibre xRC"
* Version "v2016.4_15.11"
* Nominal Temperature: 27C
* Circuit Temperature: 27C
* 
.subckt PM_RISNEW%RST 24 29 36 59
c0 50 0 0.105211f
c1 45 0 0.09587f
c2 39 0 0.114338f
c3 36 0 0.148129f
c4 27 0 0.203093f
c5 24 0 0.0241695f
c6 22 0 0.0637011f
c7 19 0 0.406634f
c8 18 0 0.0654833f
c9 15 0 0.0715519f
c10 12 0 1.33322f
c11 11 0 0.0213869f
c12 6 0 0.0173489f
r13 54 59 0.0791304
r14 45 54 0.0518409
r15 39 41 6.21019
r16 39 50 13.2552
r17 34 41 4.74271
r18 34 36 53.5
r19 31 45 16.3327
r20 29 31 4.59
r21 27 59 0.287304
r22 26 27 16.3327
r23 24 26 4.59
r24 22 50 8
r25 18 22 8
r26 18 19 8
r27 15 45 8
r28 11 15 8
r29 11 12 8
r30 7 12 2.31972
r31 6 19 0.9802
r32 6 7 0.0363174
.ends

.subckt PM_RISNEW%NET070 39 44 49 54 59 64 71 75
c0 98 0 0.23023f
c1 96 0 0.0926914f
c2 91 0 0.131041f
c3 90 0 0.083965f
c4 79 0 0.0752828f
c5 78 0 0.110938f
c6 75 0 0.141574f
c7 71 0 0.0822773f
c8 62 0 0.0745927f
c9 61 0 0.00171889f
c10 57 0 0.0689546f
c11 56 0 0.00172169f
c12 52 0 0.141675f
c13 47 0 0.0783773f
c14 46 0 0.00171889f
c15 42 0 0.0691228f
c16 41 0 0.00172169f
c17 37 0 0.100885f
c18 36 0 2.5393f
c19 33 0 0.0828775f
c20 29 0 0.014018f
c21 28 0 0.00339709f
c22 23 0 0.0256604f
c23 21 0 0.0199351f
c24 18 0 0.0565139f
c25 17 0 0.0222102f
c26 15 0 0.0178399f
c27 13 0 0.0484842f
c28 12 0 0.165914f
c29 4 0 0.0767932f
c30 3 0 0.126994f
r31 96 98 0.0505725
r32 90 93 0.0429
r33 90 91 8
r34 78 81 8.12118
r35 78 80 8.12118
r36 78 79 13.2552
r37 75 81 32.75
r38 71 80 22.5
r39 66 91 16.3327
r40 64 66 4.59
r41 61 62 16.3327
r42 59 61 4.59
r43 57 105 0.0579076
r44 56 57 16.3327
r45 54 56 4.59
r46 52 96 8
r47 51 52 16.3327
r48 49 51 4.59
r49 46 47 16.3327
r50 44 46 4.59
r51 41 42 16.3327
r52 39 41 4.59
r53 37 79 8
r54 36 37 8
r55 32 36 2.92305
r56 32 33 8
r57 25 33 8
r58 23 47 0.0579076
r59 22 29 0.0296412
r60 22 23 0.108043
r61 21 29 0.0296412
r62 20 62 0.0579076
r63 20 21 0.0867391
r64 19 28 0.035
r65 18 29 0.00770322
r66 18 19 0.28
r67 17 42 0.0579076
r68 16 28 0.035
r69 16 17 0.108043
r70 15 28 0.035
r71 15 105 0.0867391
r72 13 25 0.0516853
r73 12 28 0.035
r74 12 13 0.553913
r75 7 37 0.148571
r76 6 90 0.0255799
r77 6 98 0.6136
r78 4 7 0.037808
r79 3 93 0.00381737
r80 3 4 0.18655
.ends

.subckt PM_RISNEW%RSTOBAR 36 40 46 49 53 57 61
c0 116 0 0.0366205f
c1 109 0 0.0459249f
c2 108 0 0.243384f
c3 106 0 0.0307551f
c4 101 0 0.379705f
c5 93 0 0.0922501f
c6 91 0 0.150033f
c7 84 0 0.0879694f
c8 79 0 0.0871373f
c9 75 0 0.0511272f
c10 74 0 0.0850988f
c11 70 0 0.0508332f
c12 69 0 0.086795f
c13 66 0 0.0798945f
c14 64 0 0.097594f
c15 61 0 0.271424f
c16 57 0 0.27785f
c17 53 0 0.276521f
c18 49 0 0.270761f
c19 39 0 0.511209f
c20 34 0 0.101645f
c21 33 0 0.591391f
c22 31 0 0.0218847f
c23 29 0 0.0821045f
c24 28 0 0.55748f
c25 18 0 0.0250243f
c26 15 0 0.23705f
c27 13 0 0.0237539f
c28 12 0 0.169885f
c29 11 0 0.265297f
c30 8 0 0.165374f
c31 7 0 0.109658f
c32 5 0 0.0703129f
c33 4 0 0.879156f
r34 115 116 8
r35 108 109 8
r36 106 115 0.0169503
r37 106 108 0.238248
r38 103 104 8
r39 101 115 0.0197177
r40 101 103 0.494765
r41 84 86 8.08937
r42 84 116 13.2552
r43 79 82 8.05107
r44 79 109 13.2552
r45 75 112 8
r46 74 77 8.07022
r47 74 75 13.2552
r48 70 93 8
r49 69 71 8.07022
r50 69 70 13.2552
r51 64 66 8.07022
r52 64 91 13.2552
r53 61 86 100.75
r54 57 82 100.75
r55 53 77 100.75
r56 49 71 100.75
r57 46 66 22.5
r58 43 104 0.200253
r59 42 43 16.3327
r60 40 42 9.031
r61 39 43 0.283544
r62 38 39 16.3327
r63 36 38 7.61484
r64 34 39 8
r65 33 34 8
r66 31 33 1.79833
r67 29 91 8
r68 28 29 8
r69 26 31 0.0364276
r70 26 28 1.2102
r71 17 93 0.0663
r72 17 18 0.0202648
r73 16 29 0.0881111
r74 14 15 0.437357
r75 12 14 0.0363197
r76 12 13 0.183099
r77 11 13 0.0363721
r78 10 11 0.330132
r79 9 18 0.0141362
r80 8 15 0.0363174
r81 8 9 0.271143
r82 7 112 0.0324351
r83 6 18 0.0202648
r84 6 7 0.0702
r85 5 16 0.0373404
r86 4 10 0.0365048
r87 4 5 1.00216
.ends

.subckt PM_RISNEW%XI18/NET23 32 37 44 45 50 57 61
c0 81 0 0.0836839f
c1 80 0 0.131409f
c2 75 0 0.357805f
c3 67 0 0.0657341f
c4 66 0 0.127946f
c5 61 0 0.0945172f
c6 57 0 0.0933464f
c7 53 0 0.118306f
c8 44 0 0.0395434f
c9 43 0 0.123085f
c10 40 0 0.0646043f
c11 35 0 0.0821951f
c12 30 0 0.0731261f
c13 29 0 0.0591565f
c14 27 0 0.0530784f
c15 25 0 0.135866f
c16 22 0 0.0149214f
c17 19 0 0.400351f
c18 17 0 0.0323131f
c19 14 0 0.0158946f
c20 12 0 0.140855f
c21 11 0 0.0322314f
c22 8 0 0.0607517f
r23 80 81 8
r24 66 67 13.2552
r25 63 66 6.2234
r26 59 63 4.73303
r27 59 61 27.5
r28 55 63 4.73303
r29 55 57 26
r30 52 53 16.3327
r31 50 52 4.59
r32 47 81 16.3327
r33 45 47 4.59
r34 42 44 9.87184
r35 42 43 16.3327
r36 39 40 16.3327
r37 37 39 3.27857
r38 34 35 16.3327
r39 32 34 4.59
r40 30 40 8
r41 29 30 8
r42 25 35 8
r43 25 75 0.0487391
r44 24 27 0.0487391
r45 24 25 8
r46 21 29 0.0487391
r47 21 22 0.0715
r48 19 22 0.0363174
r49 19 27 0.9945
r50 16 43 0.203913
r51 16 17 0.0296412
r52 15 53 0.194783
r53 15 17 0.0296412
r54 13 14 0.0296412
r55 12 17 0.00770322
r56 12 13 0.404783
r57 11 40 0.0516853
r58 10 14 0.00770322
r59 10 11 0.135435
r60 9 67 0.00411102
r61 8 14 0.0296412
r62 8 9 0.20087
r63 3 80 0.0487391
r64 3 75 0.6136
.ends

.subckt PM_RISNEW%XI18/NET40 35 42 43 48 53 60 63
c0 103 0 0.068481f
c1 85 0 0.0521555f
c2 73 0 0.077267f
c3 72 0 0.166783f
c4 68 0 0.103278f
c5 63 0 0.0966489f
c6 58 0 0.0957879f
c7 56 0 0.144415f
c8 51 0 0.17249f
c9 50 0 0.00360246f
c10 46 0 0.0999608f
c11 42 0 0.0426278f
c12 41 0 0.122943f
c13 37 0 1.63121e-19
c14 31 0 0.0438199f
c15 29 0 0.0390944f
c16 27 0 0.101662f
c17 24 0 0.0358181f
c18 21 0 1.28068f
c19 19 0 0.0312131f
c20 15 0 0.0435455f
c21 6 0 0.0729401f
c22 5 0 0.149956f
c23 4 0 0.353011f
r24 72 75 0.0487391
r25 72 73 8
r26 69 103 0.0516856
r27 69 85 8
r28 68 69 13.2552
r29 65 68 5.17021
r30 61 65 4.73303
r31 61 63 28.5
r32 58 65 4.73303
r33 58 60 26.75
r34 55 56 16.3327
r35 53 55 6.21
r36 50 51 5.44423
r37 48 50 1.53
r38 45 46 16.3327
r39 43 45 4.59
r40 40 42 11.029
r41 40 41 16.3327
r42 37 73 16.3327
r43 35 37 4.59
r44 32 51 8
r45 31 34 0.0388033
r46 31 32 8
r47 27 46 8
r48 26 29 0.0343541
r49 26 27 8
r50 24 34 0.19971
r51 21 24 0.0367732
r52 21 29 1.87881
r53 18 56 0.21
r54 18 19 0.0301753
r55 17 41 0.182609
r56 17 19 0.0301753
r57 15 19 0.00725953
r58 15 103 0.148936
r59 6 32 0.0487391
r60 5 85 0.0487391
r61 5 6 0.3861
r62 4 27 0.0487391
r63 4 75 0.6136
.ends

.subckt PM_RISNEW%XI17/A0BAR 33 40 41 46 51 58 62
c0 80 0 0.34132f
c1 78 0 0.158896f
c2 76 0 0.105664f
c3 68 0 0.0581563f
c4 67 0 0.129028f
c5 62 0 0.0950277f
c6 58 0 0.0969902f
c7 49 0 0.0889522f
c8 44 0 0.0764383f
c9 43 0 8.33209e-20
c10 40 0 0.0344583f
c11 39 0 0.102141f
c12 36 0 0.0853096f
c13 33 0 0.00743492f
c14 31 0 0.109232f
c15 30 0 1.22767f
c16 28 0 0.0485082f
c17 26 0 0.0574487f
c18 25 0 0.0897093f
c19 18 0 0.0625009f
c20 17 0 0.115046f
c21 13 0 0.0112666f
c22 8 0 0.0547907f
r23 78 80 0.0487391
r24 67 68 13.2552
r25 64 67 6.2234
r26 60 64 4.73303
r27 60 62 27.5
r28 56 64 4.73303
r29 56 58 26
r30 53 76 16.3327
r31 51 53 4.572
r32 48 49 16.3327
r33 46 48 4.59
r34 44 78 8
r35 43 44 16.3327
r36 41 43 4.59
r37 38 40 9.87184
r38 38 39 16.3327
r39 35 36 16.3327
r40 33 35 3.27857
r41 31 76 8
r42 30 31 8
r43 28 30 1.9058
r44 25 26 8
r45 23 28 0.0363174
r46 23 25 0.34606
r47 20 39 0.171957
r48 19 49 0.159478
r49 18 20 0.0267979
r50 18 19 0.0267979
r51 15 18 0.021
r52 15 17 0.0516853
r53 15 26 8
r54 12 36 0.203913
r55 12 13 0.00770322
r56 11 13 0.0296412
r57 11 17 0.330217
r58 9 68 0.00411102
r59 8 13 0.0296412
r60 8 9 0.20087
r61 3 31 0.0486091
r62 3 80 0.6136
.ends

.subckt PM_RISNEW%XI17/A1BAR 33 40 41 46 51 58 62
c0 79 0 0.108296f
c1 78 0 0.12718f
c2 68 0 0.0638937f
c3 67 0 0.127189f
c4 62 0 0.0997746f
c5 58 0 0.103113f
c6 54 0 0.104666f
c7 49 0 0.0882667f
c8 43 0 1.176e-19
c9 40 0 0.0251525f
c10 39 0 0.0960787f
c11 36 0 0.0802192f
c12 31 0 0.0922488f
c13 30 0 1.17502f
c14 28 0 0.0540817f
c15 26 0 0.0451797f
c16 25 0 0.0690909f
c17 18 0 0.0622744f
c18 17 0 0.108901f
c19 13 0 0.0109115f
c20 8 0 0.0586846f
c21 4 0 0.332162f
r22 78 81 0.0486091
r23 78 79 8
r24 67 68 13.2552
r25 64 67 6.2234
r26 60 64 4.73303
r27 60 62 26
r28 56 64 4.73303
r29 56 58 27.5
r30 53 54 16.3327
r31 51 53 4.608
r32 48 49 16.3327
r33 46 48 4.59
r34 43 79 16.3327
r35 41 43 4.572
r36 38 40 9.87184
r37 38 39 16.3327
r38 35 36 16.3327
r39 33 35 3.27857
r40 31 54 8
r41 30 31 8
r42 28 30 1.63957
r43 25 26 8
r44 23 28 0.0363507
r45 23 25 0.3094
r46 20 49 0.160087
r47 19 39 0.171652
r48 18 20 0.0267979
r49 18 19 0.0267979
r50 15 18 0.021
r51 15 17 0.0516853
r52 15 26 8
r53 12 36 0.203609
r54 12 13 0.00770322
r55 11 13 0.0296412
r56 11 17 0.330217
r57 9 68 0.00411102
r58 8 13 0.0296412
r59 8 9 0.20087
r60 4 31 0.0488691
r61 4 81 0.6136
.ends

.subckt PM_RISNEW%XI17/NET13 35 40 45 50 55 60
c0 83 0 0.0226411f
c1 74 0 0.12836f
c2 72 0 0.110839f
c3 63 0 0.074956f
c4 62 0 0.00181175f
c5 58 0 0.0729968f
c6 57 0 0.00175677f
c7 53 0 0.11078f
c8 48 0 0.0747358f
c9 47 0 0.00181175f
c10 43 0 0.0700903f
c11 42 0 0.00171333f
c12 33 0 0.415937f
c13 32 0 0.38891f
c14 29 0 0.109913f
c15 25 0 0.0122837f
c16 24 0 0.00339709f
c17 17 0 0.022641f
c18 14 0 0.0681531f
c19 13 0 0.0185787f
c20 11 0 0.0185409f
c21 9 0 0.0783644f
c22 8 0 0.029075f
c23 4 0 0.314819f
r24 63 83 0.0580631
r25 62 63 16.3327
r26 60 62 4.572
r27 57 58 16.3327
r28 55 57 4.572
r29 53 74 8
r30 52 53 16.3327
r31 50 52 4.608
r32 47 48 16.3327
r33 45 47 4.608
r34 42 43 16.3327
r35 40 42 4.608
r36 37 72 16.3327
r37 35 37 4.572
r38 32 33 8
r39 29 72 8
r40 28 32 0.660656
r41 28 29 8
r42 22 33 0.23595
r43 21 22 8
r44 18 25 0.0296412
r45 18 83 0.0973913
r46 17 25 0.0296412
r47 16 48 0.057752
r48 16 17 0.0973913
r49 15 24 0.035
r50 14 25 0.00770322
r51 14 15 0.28
r52 13 58 0.0580631
r53 12 24 0.035
r54 12 13 0.0973913
r55 11 24 0.035
r56 10 43 0.057752
r57 10 11 0.0973913
r58 9 21 0.0516853
r59 8 24 0.035
r60 8 9 0.126304
r61 4 74 0.0488691
r62 3 29 0.0486091
r63 3 4 0.6136
.ends

.subckt PM_RISNEW%XI17/NET024 35 40 45 50 55 60
c0 74 0 0.15118f
c1 71 0 0.110734f
c2 70 0 0.128709f
c3 63 0 0.0740439f
c4 62 0 0.00159942f
c5 58 0 0.0751603f
c6 57 0 0.00175677f
c7 48 0 0.0751811f
c8 47 0 0.00181175f
c9 43 0 0.0717356f
c10 42 0 0.00599307f
c11 38 0 0.100001f
c12 32 0 0.686567f
c13 25 0 0.0122833f
c14 24 0 0.00339709f
c15 22 0 0.404602f
c16 19 0 0.0226405f
c17 17 0 0.0226411f
c18 14 0 0.0688953f
c19 13 0 0.0185409f
c20 11 0 0.0185838f
c21 9 0 0.0771147f
c22 8 0 0.0311661f
c23 4 0 0.301829f
r24 70 71 8
r25 63 84 0.057752
r26 62 63 16.3327
r27 60 62 4.608
r28 57 58 16.3327
r29 55 57 4.608
r30 52 71 16.3327
r31 50 52 4.572
r32 47 48 16.3327
r33 45 47 4.59
r34 42 43 16.3327
r35 40 42 4.59
r36 38 74 8
r37 37 38 16.3327
r38 35 37 4.59
r39 32 33 8
r40 28 32 0.57558
r41 28 74 8
r42 22 33 0.251392
r43 21 22 8
r44 19 48 0.0579076
r45 18 25 0.0296412
r46 18 19 0.0973913
r47 17 25 0.0296412
r48 17 84 0.0973913
r49 15 24 0.035
r50 14 25 0.00770322
r51 14 15 0.28
r52 13 43 0.0579076
r53 12 24 0.035
r54 12 13 0.0973913
r55 11 24 0.035
r56 10 58 0.057752
r57 10 11 0.0973913
r58 9 21 0.0516853
r59 8 24 0.035
r60 8 9 0.126304
r61 4 74 0.0487391
r62 3 70 0.0486091
r63 3 4 0.6136
.ends

.subckt PM_RISNEW%NET071 41 46 51 56 61 66 73 77
c0 105 0 0.0219058f
c1 99 0 0.319424f
c2 97 0 0.096285f
c3 95 0 0.0237662f
c4 94 0 0.129735f
c5 93 0 0.270703f
c6 91 0 0.0555016f
c7 80 0 0.105971f
c8 77 0 0.0817383f
c9 73 0 0.14471f
c10 64 0 0.0747541f
c11 63 0 0.00171889f
c12 59 0 0.0692003f
c13 58 0 0.00172169f
c14 54 0 0.145241f
c15 49 0 0.0729437f
c16 48 0 0.00100931f
c17 44 0 0.0674364f
c18 43 0 0.00101181f
c19 38 0 0.0713219f
c20 35 0 0.0874002f
c21 34 0 2.66755f
c22 32 0 0.0865089f
c23 31 0 0.117274f
c24 27 0 0.0146121f
c25 26 0 0.00339709f
c26 25 0 0.0481387f
c27 20 0 0.024714f
c28 18 0 0.0202874f
c29 15 0 0.0767341f
c30 12 0 0.0181442f
c31 9 0 0.194805f
r32 97 99 0.0501876
r33 95 99 0.6136
r34 93 95 0.0487391
r35 93 94 8
r36 80 83 8.12118
r37 80 82 8.12118
r38 80 91 13.2552
r39 77 83 22.5
r40 73 82 32.75
r41 68 94 16.3327
r42 66 68 4.59
r43 63 64 16.3327
r44 61 63 4.59
r45 59 105 0.0579076
r46 58 59 16.3327
r47 56 58 4.59
r48 54 97 8
r49 53 54 16.3327
r50 51 53 4.59
r51 48 49 16.3327
r52 46 48 4.59
r53 43 44 16.3327
r54 41 43 4.59
r55 39 93 0.2483
r56 39 91 8
r57 38 39 8
r58 36 38 0.1118
r59 34 36 0.0363174
r60 34 35 2.85805
r61 31 32 8
r62 29 35 0.0363174
r63 29 31 0.1001
r64 22 25 0.0516853
r65 22 32 8
r66 20 64 0.0579076
r67 19 27 0.0296412
r68 19 20 0.106522
r69 18 27 0.0296412
r70 17 49 0.0579076
r71 17 18 0.0882609
r72 16 26 0.035
r73 15 27 0.00770322
r74 15 16 0.28
r75 13 26 0.035
r76 13 105 0.106522
r77 12 26 0.035
r78 11 44 0.0579076
r79 11 12 0.0882609
r80 9 26 0.035
r81 9 25 0.553913
.ends

.subckt PM_RISNEW%NET089 24 29 34 39 46 50
c0 77 0 0.0780049f
c1 69 0 0.392609f
c2 67 0 0.140698f
c3 65 0 0.110573f
c4 57 0 0.207719f
c5 55 0 0.0658585f
c6 53 0 0.0971424f
c7 52 0 0.0938294f
c8 46 0 0.156531f
c9 32 0 0.116403f
c10 27 0 0.235663f
c11 21 0 0.0273653f
c12 19 0 0.0282189f
c13 18 0 0.32586f
c14 12 0 3.0519f
c15 10 0 0.0374193f
c16 9 0 0.517441f
c17 4 0 0.0934682f
r18 74 77 0.155826
r19 67 69 0.0493535
r20 52 55 8.10318
r21 52 54 8.13918
r22 52 53 13.2552
r23 50 55 18.75
r24 46 54 34.25
r25 41 65 16.3327
r26 39 41 4.59
r27 36 77 16.3327
r28 34 36 4.59
r29 32 67 8
r30 31 32 16.3327
r31 29 31 4.59
r32 27 77 0.28
r33 27 57 8
r34 26 27 16.3327
r35 24 26 3.27857
r36 22 65 8
r37 21 22 8
r38 19 21 0.08125
r39 18 19 0.0363174
r40 17 18 0.555066
r41 15 57 0.23465
r42 14 15 8
r43 12 17 0.0363484
r44 12 14 3.82037
r45 10 53 0.251087
r46 9 74 0.00411102
r47 8 10 0.039111
r48 8 9 0.992174
r49 4 22 0.0487391
r50 4 69 0.6136
.ends

.subckt PM_RISNEW%LFSR10 22 27 39 43 46 50
c0 56 0 0.106532f
c1 54 0 0.132371f
c2 51 0 0.0500609f
c3 48 0 0.0918951f
c4 46 0 0.0985338f
c5 41 0 0.23672f
c6 39 0 0.101861f
c7 35 0 0.114152f
c8 32 0 0.104446f
c9 30 0 0.148111f
c10 25 0 0.291427f
c11 20 0 0.118138f
c12 19 0 0.257395f
c13 16 0 0.0323879f
c14 15 0 1.31188f
c15 13 0 0.0305824f
c16 12 0 0.0593859f
c17 8 0 0.0655817f
r18 53 56 6.12766
r19 53 54 13.2552
r20 48 56 4.73303
r21 48 50 24
r22 44 56 4.73303
r23 44 46 24.25
r24 41 51 7.73958
r25 41 43 52.75
r26 37 51 7.73958
r27 37 39 27.75
r28 34 35 13.2552
r29 32 51 1.29764
r30 32 34 6.98936
r31 29 30 16.3327
r32 27 29 4.59
r33 25 61 0.0909091
r34 24 25 5.44423
r35 22 24 1.275
r36 20 54 8
r37 19 20 8
r38 17 19 0.3809
r39 15 17 0.0363174
r40 15 16 3.17135
r41 13 61 8
r42 12 13 8
r43 10 16 0.0363174
r44 10 12 0.1391
r45 7 35 0.07
r46 7 8 0.00451724
r47 6 25 0.193636
r48 6 8 0.0336819
r49 5 30 0.102727
r50 5 8 0.0336819
.ends

.subckt PM_RISNEW%XI17/A0 21 26 31 36
c0 51 0 0.13471f
c1 49 0 0.106044f
c2 34 0 0.258486f
c3 29 0 0.129191f
c4 28 0 6.70479e-19
c5 21 0 0.00696817f
c6 19 0 0.096808f
c7 18 0 0.0688272f
c8 15 0 0.0451327f
c9 14 0 2.26161f
c10 12 0 0.0703758f
c11 11 0 0.155374f
c12 4 0 0.333707f
r13 38 49 16.3327
r14 36 38 4.572
r15 34 44 0.2226
r16 33 34 16.3327
r17 31 33 4.59
r18 29 51 8
r19 28 29 16.3327
r20 26 28 4.59
r21 24 44 0.20832
r22 23 24 16.3327
r23 21 23 3.27857
r24 19 49 8
r25 18 19 8
r26 16 18 0.0605647
r27 14 16 0.0369036
r28 14 15 2.43463
r29 12 44 8
r30 11 12 8
r31 9 15 0.0363199
r32 9 11 0.357217
r33 4 51 0.0487391
r34 3 19 0.0486091
r35 3 4 0.6136
.ends

.subckt PM_RISNEW%XI17/A1 21 26 31 36
c0 48 0 0.132761f
c1 47 0 0.126017f
c2 39 0 0.106044f
c3 24 0 0.241806f
c4 19 0 0.10928f
c5 18 0 0.0269572f
c6 15 0 0.0447796f
c7 14 0 2.18813f
c8 12 0 0.105898f
c9 11 0 0.13631f
c10 4 0 0.331081f
r11 47 48 8
r12 38 39 16.3327
r13 36 38 4.608
r14 34 44 0.2226
r15 33 34 16.3327
r16 31 33 4.59
r17 28 48 16.3327
r18 26 28 4.572
r19 24 44 0.2086
r20 23 24 16.3327
r21 21 23 3.27857
r22 19 39 8
r23 18 19 8
r24 16 18 0.0838
r25 14 16 0.0363414
r26 14 15 2.45088
r27 12 44 8
r28 11 12 8
r29 9 15 0.0363199
r30 9 11 0.360609
r31 4 19 0.0488691
r32 3 47 0.0486091
r33 3 4 0.6123
.ends

.subckt PM_RISNEW%NET087 23 28 33 38
c0 55 0 0.358828f
c1 53 0 0.117529f
c2 41 0 0.110691f
c3 31 0 0.115828f
c4 26 0 0.313606f
c5 25 0 0.00478826f
c6 22 0 0.808099f
c7 16 0 0.144546f
c8 15 0 0.0622576f
c9 14 0 2.69419f
c10 12 0 0.122659f
c11 11 0 0.350687f
c12 4 0 0.0851197f
r13 53 55 0.0456532
r14 40 41 16.3327
r15 38 40 4.59
r16 35 36 16.3327
r17 33 35 4.59
r18 31 53 8
r19 30 31 16.3327
r20 28 30 4.59
r21 26 36 0.389455
r22 25 26 16.3327
r23 23 25 3.27857
r24 21 22 1.00141
r25 19 41 8
r26 18 19 8
r27 16 22 0.0363371
r28 16 18 0.20215
r29 14 21 0.0454568
r30 14 15 3.1625
r31 12 36 8
r32 11 12 8
r33 9 15 0.0368252
r34 9 11 0.651219
r35 4 19 0.0386698
r36 4 55 0.528966
.ends

.subckt PM_RISNEW%LFSR10_BAR 28 33 40 44 47 51
c0 73 0 0.138465f
c1 67 0 0.0860184f
c2 62 0 0.14514f
c3 61 0 0.122558f
c4 56 0 0.110364f
c5 54 0 0.139146f
c6 49 0 0.10134f
c7 47 0 0.0899492f
c8 42 0 0.147975f
c9 40 0 0.0963285f
c10 36 0 0.111785f
c11 35 0 0.0163747f
c12 31 0 0.400873f
c13 27 0 0.0082683f
c14 25 0 0.157769f
c15 24 0 0.0994963f
c16 20 0 2.5959f
c17 17 0 0.0667158f
c18 12 0 1.40374f
c19 7 0 0.0951665f
r20 61 62 13.2552
r21 58 61 6.2234
r22 54 67 8
r23 53 56 6.12766
r24 53 54 13.2552
r25 49 58 4.73303
r26 49 51 24.25
r27 45 58 4.73303
r28 45 47 24
r29 42 56 4.73303
r30 42 44 52.75
r31 38 56 4.73303
r32 38 40 27.75
r33 35 36 16.3327
r34 33 35 4.59
r35 31 73 8
r36 30 31 5.44423
r37 28 30 1.275
r38 25 62 8
r39 24 25 8
r40 22 24 0.16055
r41 21 27 0.00715299
r42 20 22 0.0363174
r43 20 21 3.61205
r44 18 67 0.0605392
r45 17 18 8
r46 15 27 0.0275239
r47 15 17 0.1703
r48 13 73 0.15275
r49 12 13 8
r50 10 27 0.0275239
r51 10 12 3.08607
r52 8 31 0.410889
r53 7 36 0.0458889
r54 7 8 0.0407163
.ends

.subckt PM_RISNEW%NET083 35 40 45 50 55 60 67 71
c0 110 0 0.080254f
c1 91 0 0.346907f
c2 89 0 0.106206f
c3 76 0 0.101407f
c4 71 0 0.142299f
c5 67 0 0.0942807f
c6 63 0 0.111026f
c7 58 0 0.0713139f
c8 57 0 0.00179001f
c9 53 0 0.0777357f
c10 52 0 0.00178734f
c11 48 0 0.107249f
c12 43 0 0.0734098f
c13 42 0 0.00174271f
c14 38 0 0.0783713f
c15 37 0 0.00168048f
c16 32 0 0.310248f
c17 30 0 0.0477427f
c18 29 0 0.204932f
c19 26 0 0.0880152f
c20 23 0 0.970994f
c21 21 0 0.0129264f
c22 20 0 0.00354479f
c23 19 0 0.0186611f
c24 17 0 0.0249995f
c25 14 0 0.0626275f
c26 13 0 0.0168311f
c27 11 0 0.0225258f
c28 8 0 0.103374f
c29 4 0 0.0989f
r30 89 91 0.0438698
r31 77 110 0.051719
r32 76 77 13.2552
r33 73 76 6.2234
r34 69 73 4.73303
r35 69 71 27.5
r36 65 73 4.73303
r37 65 67 26
r38 62 63 16.3327
r39 60 62 4.59
r40 58 100 0.057752
r41 57 58 16.3327
r42 55 57 4.608
r43 52 53 16.3327
r44 50 52 4.608
r45 48 89 8
r46 47 48 16.3327
r47 45 47 4.59
r48 42 43 16.3327
r49 40 42 4.59
r50 37 38 16.3327
r51 35 37 4.59
r52 33 63 8
r53 32 33 8
r54 30 32 0.391548
r55 28 30 0.0363174
r56 28 29 0.295595
r57 26 77 8
r58 25 26 8
r59 23 29 0.0364067
r60 23 25 1.05097
r61 19 43 0.0579076
r62 18 21 0.0307054
r63 18 19 0.0821739
r64 17 21 0.0307054
r65 17 100 0.109565
r66 15 20 0.0335417
r67 14 21 0.00682649
r68 14 15 0.268333
r69 13 38 0.0579076
r70 12 20 0.0365217
r71 12 13 0.0821739
r72 11 20 0.0365217
r73 10 53 0.057752
r74 10 11 0.109565
r75 8 20 0.0335417
r76 8 110 0.34125
r77 4 33 0.0386698
r78 4 91 0.528966
.ends

.subckt PM_RISNEW%LFSR3 33 38 43 48 53 58
c0 72 0 0.0911248f
c1 70 0 0.127372f
c2 56 0 0.169639f
c3 55 0 0.0157003f
c4 51 0 0.338381f
c5 50 0 0.00498567f
c6 46 0 0.127382f
c7 41 0 0.136275f
c8 38 0 0.00362302f
c9 36 0 0.152978f
c10 35 0 0.0199426f
c11 30 0 0.197952f
c12 28 0 0.0621566f
c13 26 0 0.132349f
c14 25 0 1.50801f
c15 21 0 0.0673599f
c16 19 0 0.0364668f
c17 12 0 0.108185f
c18 9 0 0.0776131f
c19 8 0 0.373752f
c20 4 0 0.0944482f
c21 3 0 0.269945f
r22 60 70 16.3327
r23 58 60 4.59
r24 55 56 16.3327
r25 53 55 4.59
r26 50 51 16.3327
r27 48 50 4.59
r28 46 72 8
r29 45 46 16.3327
r30 43 45 4.59
r31 40 41 16.3327
r32 38 40 4.59
r33 35 36 5.44423
r34 33 35 1.275
r35 31 70 8
r36 30 31 8
r37 28 30 0.235238
r38 25 26 8
r39 23 28 0.0370017
r40 23 25 2.53894
r41 20 56 0.111447
r42 20 21 0.027509
r43 18 41 0.098
r44 18 19 0.00691562
r45 17 36 0.0718182
r46 17 19 0.0305956
r47 16 51 0.233636
r48 16 19 0.0305956
r49 15 51 0.107273
r50 13 26 0.166369
r51 12 13 8
r52 10 21 0.027509
r53 10 12 0.0525
r54 9 15 0.0392663
r55 8 21 0.00955176
r56 8 9 0.397209
r57 4 31 0.0487391
r58 3 72 0.0487391
r59 3 4 0.6136
.ends

.subckt PM_RISNEW%LFSR8 23 28 33 38 45 48
c0 67 0 0.0839102f
c1 65 0 0.126114f
c2 57 0 0.191083f
c3 55 0 0.0503313f
c4 52 0 0.104737f
c5 48 0 0.100127f
c6 43 0 0.250071f
c7 36 0 0.157523f
c8 31 0 0.127533f
c9 26 0 0.30604f
c10 23 0 0.00502901f
c11 20 0 0.10437f
c12 13 0 1.39147f
c13 11 0 0.0562056f
c14 10 0 0.106242f
c15 4 0 0.0753175f
c16 3 0 0.301982f
r17 52 53 13.2552
r18 50 55 1.29764
r19 50 52 6.98936
r20 46 55 7.73958
r21 46 48 27.75
r22 43 55 7.73958
r23 43 45 52.75
r24 40 65 16.3327
r25 38 40 4.59
r26 36 57 8
r27 35 36 16.3327
r28 33 35 4.59
r29 31 67 8
r30 30 31 16.3327
r31 28 30 4.59
r32 25 26 5.44423
r33 23 25 1.275
r34 21 65 8
r35 20 21 8
r36 18 20 0.16783
r37 16 57 0.291045
r38 15 16 8
r39 13 18 0.0366757
r40 13 15 2.83601
r41 10 53 0.0807692
r42 10 11 0.00743685
r43 9 36 0.110182
r44 9 11 0.0299608
r45 8 26 0.197091
r46 8 11 0.0299608
r47 4 21 0.0487391
r48 3 67 0.0487391
r49 3 4 0.6136
.ends

.subckt PM_RISNEW%NET082 37 42 47 52 57 62 69 73
c0 99 0 0.0246474f
c1 91 0 0.384896f
c2 89 0 0.106537f
c3 87 0 0.110858f
c4 79 0 0.060208f
c5 78 0 0.120357f
c6 73 0 0.102834f
c7 69 0 0.144596f
c8 60 0 0.0713064f
c9 59 0 0.00179001f
c10 55 0 0.0765178f
c11 54 0 0.00178734f
c12 50 0 0.107254f
c13 45 0 0.0708923f
c14 44 0 0.00179001f
c15 40 0 0.0751932f
c16 39 0 0.00171889f
c17 32 0 0.105546f
c18 29 0 0.150443f
c19 26 0 0.930832f
c20 24 0 0.0134581f
c21 23 0 0.00369249f
c22 20 0 0.018309f
c23 17 0 0.0629677f
c24 16 0 0.0229209f
c25 14 0 0.0171728f
c26 8 0 0.0969873f
c27 4 0 0.0771479f
r28 89 91 0.0487391
r29 78 79 13.2552
r30 75 78 6.2234
r31 71 75 4.73303
r32 71 73 26
r33 67 75 4.73303
r34 67 69 27.5
r35 64 87 16.3327
r36 62 64 4.59
r37 60 99 0.0580631
r38 59 60 16.3327
r39 57 59 4.572
r40 54 55 16.3327
r41 52 54 4.572
r42 50 89 8
r43 49 50 16.3327
r44 47 49 4.59
r45 44 45 16.3327
r46 42 44 4.608
r47 39 40 16.3327
r48 37 39 4.608
r49 33 87 8
r50 32 35 0.023451
r51 32 33 8
r52 28 29 8
r53 26 35 0.00999681
r54 26 28 1.25899
r55 21 24 0.031753
r56 21 99 0.108043
r57 20 24 0.031753
r58 19 45 0.057752
r59 19 20 0.0806522
r60 18 23 0.0322
r61 17 24 0.0059907
r62 17 18 0.2576
r63 16 55 0.0580631
r64 15 23 0.0380435
r65 15 16 0.108043
r66 14 23 0.0380435
r67 13 40 0.057752
r68 13 14 0.0806522
r69 11 29 8
r70 9 79 0.00115592
r71 9 11 0.1764
r72 8 23 0.0322
r73 8 11 0.1834
r74 4 33 0.0487391
r75 4 91 0.6136
.ends

.subckt PM_RISNEW%XI5/XI0/NET19 36 41 46 51 56 61
c0 85 0 0.0784192f
c1 75 0 0.0887955f
c2 73 0 0.102302f
c3 71 0 0.136982f
c4 63 0 0.00172169f
c5 58 0 0.00215368f
c6 49 0 0.13257f
c7 44 0 0.076651f
c8 41 0 0.00179001f
c9 39 0 0.0783602f
c10 36 0 0.00242017f
c11 34 0 0.243301f
c12 33 0 0.61648f
c13 30 0 0.0640831f
c14 29 0 0.173583f
c15 26 0 0.92072f
c16 22 0 0.021457f
c17 21 0 0.0205534f
c18 19 0 0.0176875f
c19 17 0 0.0171284f
c20 15 0 0.0599613f
c21 10 0 0.0180515f
c22 9 0 0.0746007f
c23 8 0 0.0195436f
c24 3 0 0.188537f
r25 70 73 0.0487391
r26 70 71 8
r27 64 85 0.0579076
r28 63 64 16.3327
r29 61 63 4.59
r30 58 59 16.3327
r31 56 58 4.59
r32 53 71 16.3327
r33 51 53 4.59
r34 49 75 8
r35 48 49 16.3327
r36 46 48 4.59
r37 43 44 16.3327
r38 41 43 4.59
r39 38 39 16.3327
r40 36 38 4.59
r41 33 34 8
r42 31 33 0.860167
r43 29 31 0.0367615
r44 29 30 0.260774
r45 26 70 8
r46 24 30 0.0364067
r47 24 26 1.42409
r48 20 22 0.0435722
r49 19 44 0.0579076
r50 19 20 0.0745652
r51 18 21 0.0435722
r52 17 39 0.0579076
r53 17 18 0.0745652
r54 15 34 8
r55 13 22 0.00196586
r56 13 15 0.0922133
r57 12 21 0.00196586
r58 12 15 0.07952
r59 10 22 0.0435722
r60 10 85 0.076087
r61 9 59 0.0532409
r62 8 21 0.0435722
r63 8 9 0.0852174
r64 3 75 0.0487391
r65 3 73 0.6136
.ends

.subckt PM_RISNEW%XI5/NET42 28 32 38 41 44 48
c0 75 0 0.157585f
c1 62 0 0.114829f
c2 59 0 0.126721f
c3 55 0 0.123072f
c4 48 0 0.158208f
c5 44 0 0.158185f
c6 39 0 0.0787674f
c7 36 0 0.0773533f
c8 35 0 0.0823248f
c9 32 0 0.00735847f
c10 31 0 0.106807f
c11 26 0 0.127875f
c12 23 0 0.120953f
c13 22 0 0.994565f
c14 18 0 0.122013f
c15 15 0 0.0954099f
c16 10 0 0.0841628f
r17 61 62 4.11702
r18 59 70 0.0496512
r19 58 61 2.01064
r20 58 59 13.2552
r21 54 55 4.11702
r22 51 54 2.01064
r23 51 75 13.2552
r24 46 62 4.73303
r25 46 48 40.75
r26 42 55 4.73303
r27 42 44 40.75
r28 39 61 4.73303
r29 39 41 16.75
r30 36 54 4.73303
r31 36 38 16.75
r32 34 35 16.3327
r33 32 34 9.031
r34 30 31 16.3327
r35 28 30 7.61484
r36 26 75 8
r37 25 26 8
r38 23 70 8
r39 22 25 0.36725
r40 22 23 8
r41 20 22 0.9802
r42 17 18 8
r43 15 20 0.0366757
r44 15 17 0.133869
r45 13 31 0.175
r46 12 35 0.159783
r47 10 13 0.0558143
r48 10 12 0.0558143
r49 10 18 8
.ends

.subckt PM_RISNEW%VSS 129 344 409 414 419 424 429 434 439 440 444 449 454 459
+ 464 469 474 479 484 489 494 499 504 509 514 519 524 529 534 539 544 551 552
+ 557 562 567 572 577 582 587 592 597 602 607 612 617 622 627 632 637 642 647
+ 652 657 662 667 674 677 678 683 688 693 698 703 708 713 718 723 728 733 738
+ 743 748 753 758 763 768 773 778 783 787 791 795 799 803 807 811 815 819 823
+ 827 831 835
c0 838 0 0.0531608f
c1 835 0 0.00527447f
c2 831 0 0.0168544f
c3 830 0 0.0555102f
c4 827 0 0.00543855f
c5 826 0 0.0507548f
c6 823 0 0.0199696f
c7 822 0 0.0495727f
c8 819 0 0.00494485f
c9 818 0 0.0697052f
c10 814 0 0.10842f
c11 811 0 0.00703783f
c12 810 0 0.0732404f
c13 807 0 0.0184748f
c14 806 0 0.143223f
c15 803 0 0.00688896f
c16 802 0 0.0777787f
c17 798 0 0.0750776f
c18 794 0 0.086918f
c19 791 0 0.01778f
c20 790 0 0.275106f
c21 787 0 0.0106258f
c22 786 0 0.101235f
c23 781 0 0.16632f
c24 780 0 0.00200724f
c25 776 0 0.111517f
c26 773 0 0.00516909f
c27 771 0 0.11299f
c28 766 0 0.115458f
c29 763 0 0.0030572f
c30 761 0 0.108784f
c31 760 0 0.00363317f
c32 756 0 0.109012f
c33 755 0 4.46148e-19
c34 751 0 0.127129f
c35 746 0 0.111578f
c36 745 0 0.00519219f
c37 741 0 0.120167f
c38 738 0 0.00321269f
c39 736 0 0.151487f
c40 731 0 0.1211f
c41 728 0 0.00226088f
c42 726 0 0.113202f
c43 721 0 0.1559f
c44 716 0 0.145758f
c45 713 0 0.00770377f
c46 711 0 0.120502f
c47 710 0 0.00139558f
c48 701 0 0.171315f
c49 696 0 0.157196f
c50 693 0 3.61481e-19
c51 691 0 0.121014f
c52 690 0 0.00681222f
c53 686 0 0.249301f
c54 685 0 0.00605445f
c55 681 0 0.235542f
c56 676 0 0.0979462f
c57 673 0 0.0967782f
c58 670 0 0.115322f
c59 667 0 0.00175392f
c60 665 0 0.109073f
c61 664 0 0.00462093f
c62 660 0 0.119997f
c63 655 0 0.118829f
c64 650 0 0.113356f
c65 647 0 0.00204288f
c66 645 0 0.130727f
c67 640 0 0.123743f
c68 635 0 0.124948f
c69 630 0 0.175147f
c70 625 0 0.166972f
c71 620 0 0.316274f
c72 615 0 0.147358f
c73 610 0 0.14782f
c74 605 0 0.108894f
c75 602 0 0.00509992f
c76 600 0 0.135652f
c77 597 0 0.00676276f
c78 595 0 0.31939f
c79 592 0 0.0150432f
c80 590 0 0.395075f
c81 587 0 0.00590053f
c82 585 0 0.210937f
c83 580 0 0.183402f
c84 575 0 0.106364f
c85 572 0 0.00805534f
c86 570 0 0.134019f
c87 565 0 0.237878f
c88 560 0 0.109647f
c89 557 0 0.00676276f
c90 555 0 0.10819f
c91 554 0 5.62163e-19
c92 551 0 0.012355f
c93 550 0 0.0866072f
c94 547 0 0.125587f
c95 542 0 0.111796f
c96 537 0 0.112009f
c97 532 0 0.157742f
c98 527 0 0.167229f
c99 526 0 0.0172437f
c100 522 0 0.127872f
c101 519 0 0.00364149f
c102 517 0 0.140924f
c103 516 0 0.0130578f
c104 512 0 0.111483f
c105 509 0 0.00467559f
c106 507 0 0.113602f
c107 504 0 4.64343e-19
c108 502 0 0.115215f
c109 499 0 0.0112534f
c110 497 0 0.206955f
c111 492 0 0.0913484f
c112 487 0 0.159321f
c113 482 0 0.1649f
c114 477 0 0.120968f
c115 476 0 0.00220695f
c116 472 0 0.0968112f
c117 467 0 0.0853963f
c118 462 0 0.155637f
c119 457 0 0.132436f
c120 456 0 0.00165391f
c121 452 0 0.122321f
c122 451 0 0.00289426f
c123 447 0 0.0558038f
c124 443 0 0.161652f
c125 439 0 0.0230116f
c126 437 0 0.120371f
c127 434 0 0.00383124f
c128 432 0 0.127245f
c129 427 0 0.146316f
c130 426 0 0.00300804f
c131 422 0 0.24531f
c132 419 0 0.0167174f
c133 417 0 0.178733f
c134 414 0 0.015153f
c135 412 0 0.173359f
c136 409 0 0.0341154f
c137 407 0 0.114079f
c138 374 0 0.20275f
c139 372 0 0.100589f
c140 361 0 0.193595f
c141 345 0 0.17805f
c142 344 0 0.0457997f
c143 342 0 0.0663472f
c144 338 0 0.0953846f
c145 337 0 0.591971f
c146 333 0 0.00489231f
c147 332 0 0.0949773f
c148 330 0 0.0282188f
c149 328 0 0.113869f
c150 327 0 0.0113114f
c151 326 0 0.136823f
c152 325 0 0.015664f
c153 324 0 0.0740548f
c154 322 0 0.0171045f
c155 317 0 0.299057f
c156 311 0 0.0575679f
c157 310 0 0.0358884f
c158 307 0 0.0468106f
c159 305 0 0.0270515f
c160 298 0 0.182146f
c161 293 0 0.0472331f
c162 291 0 0.0178108f
c163 288 0 0.0220924f
c164 287 0 0.0444521f
c165 282 0 0.0706783f
c166 279 0 0.0172028f
c167 272 0 0.0831628f
c168 269 0 0.0180499f
c169 267 0 0.0152205f
c170 265 0 0.0248565f
c171 263 0 0.0129123f
c172 253 0 0.138444f
c173 249 0 0.0368704f
c174 247 0 6.02905e-19
c175 244 0 6.51989e-19
c176 243 0 0.233311f
c177 240 0 0.0148973f
c178 237 0 0.0158693f
c179 232 0 0.0148856f
c180 230 0 0.0152938f
c181 228 0 0.0765984f
c182 221 0 0.0152992f
c183 220 0 0.0509649f
c184 214 0 0.015298f
c185 211 0 0.021625f
c186 204 0 0.0576533f
c187 197 0 0.015601f
c188 195 0 0.0745877f
c189 193 0 0.0248155f
c190 183 0 0.0194852f
c191 176 0 0.00812899f
c192 175 0 0.0189219f
c193 173 0 0.0290544f
c194 170 0 0.0340089f
c195 168 0 0.0501521f
c196 166 0 0.00424258f
c197 165 0 0.0115631f
c198 163 0 0.0126604f
c199 161 0 0.0510845f
c200 152 0 0.577826f
c201 149 0 0.081683f
c202 147 0 0.0632231f
c203 146 0 0.0307892f
c204 144 0 0.0346907f
c205 143 0 0.0487119f
c206 142 0 0.0248139f
c207 140 0 0.0337982f
c208 136 0 0.12355f
c209 133 0 0.139321f
c210 131 0 0.0258176f
c211 127 0 1.17069f
c212 123 0 0.414741f
c213 119 0 0.188253f
c214 118 0 0.165936f
c215 117 0 0.246696f
c216 115 0 0.177853f
c217 113 0 0.127031f
c218 112 0 0.0868797f
c219 109 0 0.295263f
c220 108 0 0.0600712f
c221 107 0 0.067425f
c222 106 0 0.143008f
c223 105 0 0.207973f
c224 102 0 0.08115f
c225 101 0 0.786591f
c226 100 0 0.0869834f
c227 98 0 0.429784f
c228 95 0 0.0530257f
c229 94 0 0.161825f
c230 91 0 0.228001f
c231 89 0 0.169116f
c232 88 0 0.0839053f
c233 87 0 0.16017f