* File: TBC.pex.spi.pex
* Created: Wed Nov  6 16:01:42 2024
* Program "Calibre xRC"
* Version "v2016.4_15.11"
* Nominal Temperature: 27C
* Circuit Temperature: 27C
* 
.subckt PM_TBC%ND01 28 29 33 40 44
c0 48 0 0.133471f
c1 47 0 0.108536f
c2 44 0 0.820661f
c3 40 0 1.78934f
c4 36 0 0.321214f
c5 35 0 0.00528112f
c6 32 0 1.04167f
c7 28 0 0.00797247f
c8 25 0 0.0588939f
c9 24 0 0.0599377f
c10 21 0 0.190794f
c11 20 0 0.637421f
c12 18 0 0.0711653f
c13 17 0 3.50542f
c14 12 0 0.199244f
c15 5 0 0.169352f
r16 47 50 8.07022
r17 47 49 8.07022
r18 47 48 13.2552
r19 44 50 195.5
r20 40 49 504.75
r21 35 36 2.72212
r22 33 35 0.691265
r23 31 32 1.81474
r24 29 31 0.459
r25 28 31 0.459
r26 24 27 0.0316522
r27 24 25 8
r28 21 48 8
r29 20 21 8
r30 18 20 1.12522
r31 17 18 0.0363174
r32 17 27 4.44672
r33 13 36 0.285711
r34 12 13 0.00915673
r35 10 32 0.635486
r36 9 12 0.111364
r37 9 10 0.0100603
r38 7 25 8
r39 5 32 0.372892
r40 5 7 0.0381455
.ends

.subckt PM_TBC%NETB1 38 39 43 44 48 55 59 63 67 71 75 79 95 99 103 107 111 115
+ 119
c0 130 0 0.124641f
c1 127 0 0.0768128f
c2 126 0 0.00848997f
c3 125 0 0.0076769f
c4 124 0 0.0076769f
c5 123 0 0.0076769f
c6 122 0 0.0076769f
c7 121 0 0.0373061f
c8 119 0 0.117547f
c9 115 0 0.116391f
c10 111 0 0.121277f
c11 107 0 0.120189f
c12 103 0 0.121018f
c13 99 0 0.121346f
c14 95 0 0.136771f
c15 92 0 0.0986977f
c16 90 0 0.0900475f
c17 88 0 0.100821f
c18 86 0 0.0740988f
c19 84 0 0.0991356f
c20 82 0 0.0742812f
c21 77 0 0.240195f
c22 73 0 0.246888f
c23 69 0 0.247027f
c24 65 0 0.245128f
c25 61 0 0.245038f
c26 57 0 0.245055f
c27 53 0 0.27672f
c28 51 0 0.893695f
c29 47 0 2.04064f
c30 43 0 0.0090781f
c31 42 0 2.08023f
c32 38 0 0.127993f
c33 36 0 0.0463119f
c34 35 0 3.87664f
c35 32 0 1.09268f
c36 28 0 0.301299f
c37 25 0 0.0700984f
c38 21 0 0.175341f
c39 17 0 0.181143f
c40 6 0 0.0279547f
c41 5 0 0.173766f
r42 129 130 13.2552
r43 127 129 6.12766
r44 117 127 4.73303
r45 117 119 49
r46 113 126 11.75
r47 113 115 49
r48 109 125 11.75
r49 109 111 49
r50 105 124 11.75
r51 105 107 49
r52 101 123 11.75
r53 101 103 49
r54 97 122 11.75
r55 97 99 49
r56 93 121 7.73958
r57 93 95 49
r58 92 127 1.7234
r59 91 126 1.7234
r60 91 92 9.76596
r61 90 126 1.7234
r62 89 125 1.7234
r63 89 90 9.76596
r64 88 125 1.7234
r65 87 124 1.7234
r66 87 88 9.76596
r67 86 124 1.7234
r68 85 123 1.7234
r69 85 86 9.76596
r70 84 123 1.7234
r71 83 122 1.7234
r72 83 84 9.76596
r73 82 122 1.7234
r74 81 121 1.29764
r75 81 82 9.76596
r76 77 127 4.73303
r77 77 79 124
r78 73 126 11.75
r79 73 75 124
r80 69 125 11.75
r81 69 71 124
r82 65 124 11.75
r83 65 67 124
r84 61 123 11.75
r85 61 63 124
r86 57 122 11.75
r87 57 59 124
r88 53 121 7.73958
r89 53 55 124
r90 50 51 0.628181
r91 48 50 0.148256
r92 46 47 0.816635
r93 44 46 0.197674
r94 43 46 0.197674
r95 41 42 0.859616
r96 39 41 0.197674
r97 38 41 0.197674
r98 36 130 8
r99 35 36 8
r100 31 35 3.74039
r101 31 32 8
r102 27 28 8
r103 25 51 1.24139
r104 25 27 0.0373753
r105 24 47 1.00649
r106 21 24 0.0374194
r107 21 22 8
r108 18 22 0.2015
r109 17 18 8
r110 15 42 0.900541
r111 15 17 0.0374194
r112 5 22 0.065
r113 5 6 0.00715299
r114 4 32 1.46467
r115 4 6 0.0275239
r116 3 28 0.244833
r117 3 6 0.0275239
.ends

.subckt PM_TBC%VSS 751 938 943 948 953 958 963 968 973 978 983 988 989 993 994
+ 998 999 1003 1004 1008 1009 1013 1014 1018 1019 1023 1024 1028 1029 1033 1034
+ 1038 1039 1043 1044 1048 1049 1053 1058 1059 1063 1064 1068 1069 1073 1078
+ 1083 1088 1093 1098 1103 1108 1113 1114 1118 1119 1123 1124 1128 1129 1133
+ 1134 1138 1139 1143 1144 1148 1149 1153 1154 1158 1159 1163 1164 1168 1169
+ 1173 1174 1178 1183 1184 1188 1189 1193 1194 1198 1203 1208 1213 1214 1218
+ 1219 1223 1224 1228 1229 1233 1234 1238 1239 1243 1244 1248 1249 1253 1254
+ 1258 1259 1263 1264 1268 1269 1273 1274 1278 1283 1284 1288 1289 1293 1294
+ 1298 1303 1308 1313 1318 1323 1328 1333 1338 1339 1343 1344 1348 1349 1353
+ 1354 1358 1359 1363 1364 1368 1369 1373 1374 1378 1379 1383 1384 1388 1389
+ 1393 1394 1398 1399 1403 1408 1409 1413 1414 1418 1419 1423 1428 1847
c0 1867 0 0.0131055f
c1 1864 0 0.0881583f
c2 1844 0 0.290655f
c3 1842 0 0.256838f
c4 1833 0 0.2221f
c5 1829 0 0.641192f
c6 1827 0 0.271778f
c7 1824 0 0.644345f
c8 1821 0 0.0301381f
c9 1794 0 0.342773f
c10 1698 0 0.342f
c11 1607 0 0.0469722f
c12 1606 0 0.178977f
c13 1598 0 0.201152f
c14 1594 0 0.219982f
c15 1431 0 0.283311f
c16 1421 0 0.00666551f
c17 1416 0 0.00666551f
c18 1411 0 0.00666551f
c19 1401 0 0.00666551f
c20 1396 0 0.00666551f
c21 1391 0 0.00666551f
c22 1386 0 0.00666551f
c23 1381 0 0.00666551f
c24 1376 0 0.00666551f
c25 1371 0 0.00665674f
c26 1366 0 0.00665674f
c27 1361 0 0.00665674f
c28 1356 0 0.00665674f
c29 1351 0 0.00666113f
c30 1346 0 0.00666113f
c31 1341 0 0.00666113f
c32 1331 0 0.345006f
c33 1330 0 0.00373342f
c34 1326 0 0.303652f
c35 1323 0 0.00671753f
c36 1321 0 0.274017f
c37 1320 0 0.00368534f
c38 1316 0 0.377636f
c39 1313 0 0.00624408f
c40 1311 0 0.350057f
c41 1308 0 0.00743494f
c42 1306 0 0.274919f
c43 1305 0 0.00246847f
c44 1301 0 0.232497f
c45 1297 0 0.352336f
c46 1296 0 0.00771343f
c47 1292 0 0.342812f
c48 1291 0 0.00704682f
c49 1287 0 0.345184f
c50 1286 0 0.00726194f
c51 1281 0 0.255003f
c52 1277 0 0.340394f
c53 1276 0 0.00708934f
c54 1272 0 0.339941f
c55 1271 0 0.00705807f
c56 1267 0 0.342816f
c57 1266 0 0.00705807f
c58 1262 0 0.34042f
c59 1261 0 0.00677842f
c60 1257 0 0.340464f
c61 1256 0 0.00736898f
c62 1252 0 0.340047f
c63 1251 0 0.00684096f
c64 1247 0 0.342916f
c65 1246 0 0.00700713f
c66 1242 0 0.339941f
c67 1241 0 0.00691333f
c68 1237 0 0.340683f
c69 1236 0 0.00716171f
c70 1232 0 0.340389f
c71 1231 0 0.00673732f
c72 1227 0 0.343267f
c73 1226 0 0.00676859f
c74 1222 0 0.340683f
c75 1221 0 0.00716171f
c76 1217 0 0.332344f
c77 1216 0 0.00705807f
c78 1211 0 0.221909f
c79 1206 0 0.296696f
c80 1203 0 0.00742699f
c81 1196 0 0.00771343f
c82 1191 0 0.00703928f
c83 1186 0 0.00724827f
c84 1176 0 0.00703928f
c85 1171 0 0.00703928f
c86 1166 0 0.00703928f
c87 1161 0 0.00685205f
c88 1156 0 0.00738432f
c89 1151 0 0.00675737f
c90 1146 0 0.0068303f
c91 1141 0 0.0068303f
c92 1136 0 0.0072069f
c93 1131 0 0.00677911f
c94 1126 0 0.00668443f
c95 1121 0 0.00723846f
c96 1116 0 0.00703928f
c97 1106 0 0.296909f
c98 1105 0 0.00743282f
c99 1101 0 0.356554f
c100 1098 0 0.00510466f
c101 1096 0 0.340828f
c102 1093 0 0.00900836f
c103 1091 0 0.297445f
c104 1090 0 0.00510466f
c105 1086 0 0.354505f
c106 1085 0 0.00510466f
c107 1081 0 0.412896f
c108 1078 0 0.0102941f
c109 1076 0 0.239052f
c110 1075 0 0.0674847f
c111 1072 0 0.338423f
c112 1071 0 8.46317e-19
c113 1067 0 0.342408f
c114 1066 0 0.00678476f
c115 1062 0 0.344482f
c116 1061 0 0.00670749f
c117 1056 0 0.25281f
c118 1052 0 0.339279f
c119 1051 0 0.00671489f
c120 1047 0 0.338824f
c121 1046 0 0.00671489f
c122 1042 0 0.341704f
c123 1041 0 0.00673809f
c124 1037 0 0.339304f
c125 1036 0 0.00669169f
c126 1032 0 0.339347f
c127 1031 0 0.00680768f
c128 1027 0 0.338934f
c129 1026 0 0.0066453f
c130 1022 0 0.341799f
c131 1021 0 0.0066685f
c132 1017 0 0.338824f
c133 1016 0 0.00669169f
c134 1012 0 0.33957f
c135 1011 0 0.00671489f
c136 1007 0 0.339273f
c137 1006 0 0.0066685f
c138 1002 0 0.34215f
c139 1001 0 0.00669169f
c140 997 0 0.33957f
c141 996 0 0.0066685f
c142 992 0 0.331231f
c143 991 0 0.0066453f
c144 986 0 0.22118f
c145 981 0 0.397451f
c146 978 0 0.0117422f
c147 976 0 0.31914f
c148 975 0 0.00697562f
c149 971 0 0.413596f
c150 968 0 0.00815331f
c151 966 0 1.38925f
c152 963 0 0.617397f
c153 961 0 0.344945f
c154 956 0 1.00615f
c155 953 0 0.226337f
c156 951 0 0.309268f
c157 950 0 0.018274f
c158 946 0 0.928172f
c159 943 0 0.387199f
c160 941 0 0.318147f
c161 938 0 0.0830876f
c162 936 0 0.0319533f
c163 930 0 1.11737e-19
c164 918 0 0.0111323f
c165 906 0 5.58797e-21
c166 888 0 7.94846e-20
c167 882 0 0.0359194f
c168 876 0 0.00489479f
c169 870 0 0.0350629f
c170 864 0 0.00243712f
c171 834 0 0.0010649f
c172 828 0 0.0010649f
c173 816 0 0.0639143f
c174 810 0 0.0213674f
c175 751 0 0.00537956f
c176 750 0 0.0315507f
c177 747 0 0.0275231f
c178 743 0 0.0125711f
c179 742 0 0.00954796f
c180 738 0 0.0132787f
c181 737 0 0.0257538f
c182 736 0 0.00392265f
c183 733 0 0.0132786f
c184 732 0 0.0254589f
c185 731 0 0.00392265f
c186 728 0 0.0131953f
c187 727 0 0.025458f
c188 726 0 0.00392265f
c189 723 0 0.0130202f
c190 722 0 0.0257898f
c191 721 0 0.00392265f
c192 718 0 0.0136943f
c193 717 0 0.0257246f
c194 716 0 0.00392265f
c195 713 0 0.0133476f
c196 712 0 0.0256239f
c197 711 0 0.00392265f
c198 708 0 0.0133589f
c199 707 0 0.0257488f
c200 706 0 0.00392265f
c201 703 0 0.0129418f
c202 702 0 0.0255203f
c203 701 0 0.00392265f
c204 698 0 0.0133253f
c205 697 0 0.0257515f
c206 696 0 0.00392265f
c207 693 0 0.0136073f
c208 692 0 0.0259493f
c209 691 0 0.00392274f
c210 688 0 0.0127717f
c211 687 0 0.0256911f
c212 686 0 0.00392265f
c213 683 0 0.0134519f
c214 682 0 0.0258485f
c215 681 0 0.00392265f
c216 678 0 0.0132018f
c217 677 0 0.0262045f
c218 676 0 0.00392265f
c219 673 0 0.0285569f
c220 670 0 0.0277901f
c221 667 0 0.0093731f
c222 664 0 0.0274699f
c223 661 0 0.0272784f
c224 658 0 0.0272801f
c225 655 0 0.0278333f
c226 652 0 0.0275565f
c227 649 0 0.0277582f
c228 646 0 0.0282f
c229 643 0 0.0275997f
c230 640 0 0.0276406f
c231 637 0 0.0281955f
c232 634 0 0.0279132f
c233 631 0 0.0277965f
c234 628 0 0.0272784f
c235 627 0 0.147814f
c236 625 0 4.59977e-19
c237 623 0 0.0361171f
c238 621 0 0.0262227f
c239 618 0 0.0258583f
c240 617 0 0.0919295f
c241 584 0 0.237165f
c242 580 0 0.0578719f
c243 577 0 0.0504549f
c244 574 0 0.0324403f
c245 571 0 0.074294f
c246 568 0 0.0731951f
c247 565 0 0.0732501f
c248 562 0 0.073149f
c249 559 0 0.0733623f
c250 556 0 0.0730779f
c251 553 0 0.0731066f
c252 550 0 0.0731508f
c253 547 0 0.0732044f
c254 544 0 0.0731128f
c255 541 0 0.0731477f
c256 538 0 0.0731144f
c257 535 0 0.0730686f
c258 532 0 0.0738309f
c259 527 0 0.827768f
c260 523 0 0.245991f
c261 522 0 5.47991e-20
c262 521 0 0.34445f
c263 519 0 5.47991e-20
c264 518 0 0.343025f
c265 516 0 5.47991e-20
c266 515 0 0.347604f
c267 514 0 3.03266e-19
c268 513 0 0.257747f
c269 512 0 5.47991e-20
c270 511 0 0.343346f
c271 510 0 5.47991e-20
c272 509 0 0.342919f
c273 508 0 5.47991e-20
c274 507 0 0.34577f
c275 506 0 5.47991e-20
c276 505 0 0.343372f
c277 504 0 1.29633f
c278 503 0 5.47991e-20
c279 501 0 0.342919f
c280 500 0 5.47991e-20
c281 499 0 0.345781f
c282 498 0 5.64629e-20
c283 497 0 0.343449f
c284 496 0 5.64629e-20
c285 495 0 0.343121f
c286 494 0 5.6463e-20
c287 493 0 0.345974f
c288 492 0 5.56236e-20
c289 491 0 0.345135f
c290 490 0 5.56236e-20
c291 489 0 0.343345f
c292 488 0 5.56236e-20
c293 487 0 0.334247f
c294 486 0 0.229513f
c295 485 0 5.58797e-21
c296 482 0 7.94846e-20
c297 481 0 0.159474f
c298 478 0 7.94846e-20
c299 475 0 0.00785564f
c300 472 0 0.0536637f
c301 471 0 0.0190352f
c302 469 0 0.00632293f
c303 464 0 0.0049726f
c304 460 0 0.00514481f
c305 456 0 0.00477676f
c306 452 0 0.00477998f
c307 448 0 0.00478076f
c308 444 0 0.00477842f
c309 440 0 0.00489346f
c310 436 0 0.00477957f
c311 432 0 0.00478037f
c312 428 0 0.00478153f
c313 424 0 0.00478011f
c314 420 0 0.00477725f
c315 416 0 0.00477958f
c316 412 0 0.00477998f
c317 408 0 0.00515712f
c318 405 0 0.25153f
c319 404 0 0.00779135f
c320 403 0 0.353112f
c321 400 0 0.00524588f
c322 398 0 0.221905f
c323 396 0 0.00225841f
c324 394 0 0.254573f
c325 392 0 0.00244049f
c326 390 0 0.342126f
c327 387 0 0.00256703f
c328 385 0 0.344116f
c329 383 0 0.00243815f
c330 381 0 0.339431f
c331 379 0 0.0024376f
c332 377 0 0.338976f
c333 375 0 0.00243701f
c334 373 0 0.341901f
c335 371 0 0.00243528f
c336 369 0 0.339505f
c337 367 0 0.00262324f
c338 365 0 0.339548f
c339 363 0 0.00244109f
c340 361 0 0.339131f
c341 359 0 0.00243461f
c342 357 0 0.339025f
c343 355 0 0.00255802f
c344 353 0 0.339767f
c345 351 0 0.00244188f
c346 349 0 0.339474f
c347 347 0 0.00243576f
c348 345 0 0.342351f
c349 343 0 0.00261847f
c350 341 0 0.339767f
c351 339 0 0.00244638f
c352 337 0 0.331429f
c353 336 0 0.0010649f
c354 335 0 0.223163f
c355 333 0 0.0010649f
c356 332 0 0.173899f
c357 329 0 0.00263243f
c358 326 0 0.0010649f
c359 323 0 0.0209904f
c360 319 0 0.0120504f
c361 314 0 0.0200979f
c362 310 0 0.0213682f
c363 306 0 0.0213672f
c364 302 0 0.021603f
c365 298 0 0.0213678f
c366 294 0 0.0213689f
c367 290 0 0.021367f
c368 287 0 0.052318f
c369 285 0 0.0121592f
c370 281 0 0.0123581f
c371 277 0 0.0215351f
c372 273 0 0.0214757f
c373 269 0 0.0214754f
c374 265 0 0.0214742f
c375 261 0 0.0214664f
c376 257 0 0.0217579f
c377 250 0 0.353681f
c378 249 0 0.179951f
c379 248 0 0.123721f
c380 244 0 0.0318889f
c381 242 0 0.0319833f
c382 240 0 0.0836161f
c383 238 0 0.0319066f
c384 236 0 0.0319769f
c385 234 0 0.0319801f
c386 232 0 0.031991f
c387 230 0 0.0319641f
c388 228 0 0.0319801f
c389 226 0 0.0319123f
c390 224 0 0.0320675f
c391 222 0 0.03202f
c392 220 0 0.0320035f
c393 218 0 0.0320418f
c394 216 0 0.032029f
c395 214 0 0.0320159f
c396 212 0 0.0327754f
c397 209 0 0.132554f
c398 207 0 0.0851364f
c399 205 0 0.0896438f
c400 203 0 0.120222f
c401 202 0 0.0473698f
c402 200 0 0.033893f
c403 198 0 0.0807278f
c404 196 0 0.0337598f
c405 194 0 0.0339259f
c406 192 0 0.0339226f
c407 190 0 0.0339323f
c408 188 0 0.0337814f
c409 186 0 0.0339327f
c410 184 0 0.0337912f
c411 182 0 0.0339324f
c412 180 0 0.033908f
c413 178 0 0.0339422f
c414 176 0 0.0339064f
c415 174 0 0.0339079f
c416 172 0 0.0339261f
c417 170 0 0.0353692f
c418 168 0 0.254262f
c419 165 0 0.0474195f
c420 164 0 0.0467969f
c421 162 0 0.0330475f
c422 160 0 0.0799141f
c423 158 0 0.0329883f
c424 156 0 0.0331316f
c425 154 0 0.0331315f
c426 152 0 0.0331177f
c427 150 0 0.0329496f
c428 148 0 0.0331536f
c429 146 0 0.0331282f
c430 144 0 0.0331315f
c431 142 0 0.0329974f
c432 140 0 0.0331272f
c433 138 0 0.0331469f
c434 136 0 0.0329341f
c435 134 0 0.0331441f
c436 132 0 0.0345671f
c437 130 0 0.222261f
c438 125 0 0.0890902f
c439 123 0 0.142803f
c440 122 0 0.492504f
c441 121 0 0.103209f
c442 120 0 0.0901918f
c443 118 0 0.0612453f
c444 116 0 0.142499f
c445 114 0 0.0775514f
c446 112 0 0.0665322f
c447 110 0 0.0657203f
c448 108 0 0.0673887f
c449 106 0 0.0637757f
c450 104 0 0.0673887f
c451 102 0 0.0656077f
c452 100 0 0.0657858f
c453 98 0 0.0657749f
c454 96 0 0.0670325f
c455 94 0 0.0650734f
c456 92 0 0.066142f
c457 90 0 0.066142f
c458 88 0 0.0672867f
c459 86 0 0.210217f
c460 82 0 0.024698f
c461 78 0 0.0347571f
c462 77 0 0.487531f
c463 76 0 0.0471815f
c464 75 0 0.171913f
c465 74 0 0.0469722f
c466 73 0 0.190869f
c467 72 0 0.0484184f
c468 71 0 0.082052f
c469 70 0 0.0469718f
c470 69 0 0.122101f
c471 67 0 0.251722f
c472 56 0 0.0655255f
r473 1863 1865 0.0632979
r474 1863 1864 0.0282979
r475 1855 1856 0.0656111
r476 1850 1851 0.0308176
r477 1844 1847 0.191183
r478 1827 1853 0.00836478
r479 1725 1863 0.0113862
r480 1630 1856 0.0538281
r481 1627 1855 0.0538281
r482 1620 1853 0.0540909
r483 1617 1851 0.0540909
r484 1614 1850 0.0540909
r485 1604 1607 0.0321429
r486 1604 1606 0.0321429
r487 1431 1821 0.256789
r488 1430 1431 5.44423
r489 1428 1430 1.10337
r490 1425 1426 5.44423
r491 1423 1425 1.53
r492 1421 1422 5.44423
r493 1419 1421 1.53
r494 1418 1421 1.53
r495 1416 1417 5.44423
r496 1414 1416 1.53
r497 1413 1416 1.53
r498 1411 1412 5.44423
r499 1409 1411 1.53
r500 1408 1411 1.53
r501 1405 1406 5.44423
r502 1403 1405 1.53
r503 1401 1402 5.44423
r504 1399 1401 1.53
r505 1398 1401 1.53
r506 1396 1397 5.44423
r507 1394 1396 1.53
r508 1393 1396 1.53
r509 1391 1392 5.44423
r510 1389 1391 1.53
r511 1388 1391 1.53
r512 1386 1387 5.44423
r513 1384 1386 1.53
r514 1383 1386 1.53
r515 1381 1382 5.44423
r516 1379 1381 1.53
r517 1378 1381 1.53
r518 1376 1377 5.44423
r519 1374 1376 1.53
r520 1373 1376 1.53
r521 1372 1794 0.198947
r522 1371 1372 5.44423
r523 1369 1371 1.524
r524 1368 1371 1.536
r525 1366 1367 5.44423
r526 1364 1366 1.524
r527 1363 1366 1.536
r528 1361 1362 5.44423
r529 1359 1361 1.524
r530 1358 1361 1.536
r531 1356 1357 5.44423
r532 1354 1356 1.524
r533 1353 1356 1.536
r534 1351 1352 5.44423
r535 1349 1351 1.524
r536 1348 1351 1.536
r537 1346 1347 5.44423
r538 1344 1346 1.524
r539 1343 1346 1.536
r540 1341 1342 8.16635
r541 1339 1341 1.524
r542 1338 1341 1.536
r543 1335 1336 5.44423
r544 1333 1335 1.524
r545 1331 1779 0.256789
r546 1330 1331 5.44423
r547 1328 1330 1.10337
r548 1325 1326 2.72212
r549 1323 1325 0.691265
r550 1321 1774 0.256789
r551 1320 1321 5.44423
r552 1318 1320 1.10337
r553 1315 1316 3.26654
r554 1313 1315 0.691265
r555 1310 1311 3.26654
r556 1308 1310 0.691265
r557 1306 1767 0.256789
r558 1305 1306 5.44423
r559 1303 1305 1.10337
r560 1300 1301 5.44423
r561 1298 1300 1.53
r562 1296 1297 5.44423
r563 1294 1296 1.53
r564 1293 1296 1.53
r565 1291 1292 5.44423
r566 1289 1291 1.53
r567 1288 1291 1.53
r568 1286 1287 5.44423
r569 1284 1286 1.53
r570 1283 1286 1.53
r571 1280 1281 5.44423
r572 1278 1280 1.53
r573 1276 1277 5.44423
r574 1274 1276 1.53
r575 1273 1276 1.53
r576 1271 1272 5.44423
r577 1269 1271 1.53
r578 1268 1271 1.53
r579 1266 1267 5.44423
r580 1264 1266 1.53
r581 1263 1266 1.53
r582 1261 1262 5.44423
r583 1259 1261 1.53
r584 1258 1261 1.53
r585 1256 1257 5.44423
r586 1254 1256 1.53
r587 1253 1256 1.53
r588 1251 1252 5.44423
r589 1249 1251 1.53
r590 1248 1251 1.53
r591 1247 1740 0.198026
r592 1246 1247 5.44423
r593 1244 1246 1.524
r594 1243 1246 1.536
r595 1241 1242 5.44423
r596 1239 1241 1.524
r597 1238 1241 1.536
r598 1236 1237 5.44423
r599 1234 1236 1.524
r600 1233 1236 1.536
r601 1231 1232 5.44423
r602 1229 1231 1.524
r603 1228 1231 1.536
r604 1226 1227 5.44423
r605 1224 1226 1.524
r606 1223 1226 1.536
r607 1221 1222 5.44423
r608 1219 1221 1.524
r609 1218 1221 1.536
r610 1216 1217 8.16635
r611 1214 1216 1.524
r612 1213 1216 1.536
r613 1210 1211 5.44423
r614 1208 1210 1.524
r615 1206 1725 0.397711
r616 1205 1206 3.26654
r617 1203 1205 0.691265
r618 1200 1201 5.44423
r619 1198 1200 1.53
r620 1196 1197 5.44423
r621 1194 1196 1.53
r622 1193 1196 1.53
r623 1191 1192 5.44423
r624 1189 1191 1.53
r625 1188 1191 1.53
r626 1186 1187 5.44423
r627 1184 1186 1.53
r628 1183 1186 1.53
r629 1180 1181 5.44423
r630 1178 1180 1.53
r631 1176 1177 5.44423
r632 1174 1176 1.53
r633 1173 1176 1.53
r634 1171 1172 5.44423
r635 1169 1171 1.53
r636 1168 1171 1.53
r637 1166 1167 5.44423
r638 1164 1166 1.53
r639 1163 1166 1.53
r640 1161 1162 5.44423
r641 1159 1161 1.53
r642 1158 1161 1.53
r643 1156 1157 5.44423
r644 1154 1156 1.53
r645 1153 1156 1.53
r646 1151 1152 5.44423
r647 1149 1151 1.53
r648 1148 1151 1.53
r649 1147 1698 0.193421
r650 1146 1147 5.44423
r651 1144 1146 1.524
r652 1143 1146 1.536
r653 1141 1142 5.44423
r654 1139 1141 1.524
r655 1138 1141 1.536
r656 1136 1137 5.44423
r657 1134 1136 1.524
r658 1133 1136 1.536
r659 1131 1132 5.44423
r660 1129 1131 1.524
r661 1128 1131 1.536
r662 1126 1127 5.44423
r663 1124 1126 1.524
r664 1123 1126 1.536
r665 1121 1122 5.44423
r666 1119 1121 1.524
r667 1118 1121 1.536
r668 1116 1117 8.16635
r669 1114 1116 1.524
r670 1113 1116 1.536
r671 1110 1111 5.44423
r672 1108 1110 1.524
r673 1105 1106 3.26654
r674 1103 1105 0.691265
r675 1100 1101 5.44423
r676 1098 1100 1.10337
r677 1095 1096 3.26654
r678 1093 1095 0.691265
r679 1091 1677 0.256789
r680 1090 1091 5.44423
r681 1088 1090 1.10337
r682 1086 1674 0.256789
r683 1085 1086 5.44423
r684 1083 1085 1.10337
r685 1080 1081 2.72212
r686 1078 1080 0.691265
r687 1075 1076 5.44423
r688 1073 1075 1.53
r689 1071 1072 5.44423
r690 1069 1071 1.53
r691 1068 1071 1.53
r692 1066 1067 5.44423
r693 1064 1066 1.53
r694 1063 1066 1.53
r695 1061 1062 5.44423
r696 1059 1061 1.53
r697 1058 1061 1.53
r698 1055 1056 5.44423
r699 1053 1055 1.53
r700 1051 1052 5.44423
r701 1049 1051 1.53
r702 1048 1051 1.53
r703 1046 1047 5.44423
r704 1044 1046 1.53
r705 1043 1046 1.53
r706 1041 1042 5.44423
r707 1039 1041 1.53
r708 1038 1041 1.53
r709 1036 1037 5.44423
r710 1034 1036 1.53
r711 1033 1036 1.53
r712 1031 1032 5.44423
r713 1029 1031 1.53
r714 1028 1031 1.53
r715 1026 1027 5.44423
r716 1024 1026 1.53
r717 1023 1026 1.53
r718 1022 1645 0.194342
r719 1021 1022 5.44423
r720 1019 1021 1.524
r721 1018 1021 1.536
r722 1016 1017 5.44423
r723 1014 1016 1.524
r724 1013 1016 1.536
r725 1011 1012 5.44423
r726 1009 1011 1.524
r727 1008 1011 1.536
r728 1006 1007 5.44423
r729 1004 1006 1.524
r730 1003 1006 1.536
r731 1001 1002 5.44423
r732 999 1001 1.524
r733 998 1001 1.536
r734 996 997 5.44423
r735 994 996 1.524
r736 993 996 1.536
r737 991 992 8.16635
r738 989 991 1.524
r739 988 991 1.536
r740 985 986 5.44423
r741 983 985 1.524
r742 981 1630 0.398632
r743 980 981 3.26654
r744 978 980 0.691265
r745 976 1627 0.256789
r746 975 976 5.44423
r747 973 975 1.10337
r748 970 971 3.26654
r749 968 970 0.691265
r750 965 966 0.49493
r751 963 965 0.116497
r752 961 1620 0.398632
r753 960 961 3.26654
r754 958 960 0.691265
r755 956 1617 1.14045
r756 955 956 0.907372
r757 953 955 0.211716
r758 951 1614 0.256789
r759 950 951 5.44423
r760 948 950 1.10337
r761 945 946 0.628181
r762 943 945 0.148256
r763 940 941 4.08318
r764 938 940 0.691265
r765 930 1794 0.0102777
r766 924 1821 0.0212754
r767 924 1598 8
r768 918 1779 0.0119263
r769 918 1844 0.0249793
r770 910 1847 0.22129
r771 906 1774 0.0119263
r772 906 1842 0.0249793
r773 898 1842 0.412473
r774 892 1594 0.0948387
r775 888 1767 0.0119263
r776 876 1740 0.0102777
r777 864 1698 0.0102777
r778 856 1867 0.00819149
r779 856 1865 0.0260638
r780 846 852 0.350753
r781 834 1677 0.0119263
r782 834 1604 1
r783 828 1674 0.0119263
r784 828 1833 0.0249793
r785 820 1833 0.412473
r786 810 1645 0.0102777
r787 802 1858 0.0252692
r788 802 1856 0.0265991
r789 798 1855 0.000664978
r790 798 1829 0.0077044
r791 786 1829 0.0462264
r792 786 790 0.0744025
r793 778 1827 0.0180503
r794 772 1853 0.00792453
r795 772 1851 0.0264151
r796 768 1850 0.000660377
r797 768 1824 0.0077044
r798 754 1824 0.0931132
r799 754 760 0.0275157
r800 751 936 2.04159
r801 751 930 0.563197
r802 751 924 8.16635
r803 751 918 8.16635
r804 751 910 5.44423
r805 751 906 8.16635
r806 751 898 5.44423
r807 751 892 5.44423
r808 751 888 8.16635
r809 751 882 2.04159
r810 751 876 0.563197
r811 751 870 2.04159
r812 751 864 0.563197
r813 751 856 5.44423
r814 751 852 5.44423
r815 751 846 8.16635
r816 751 838 5.44423
r817 751 834 8.16635
r818 751 828 8.16635
r819 751 820 5.44423
r820 751 816 2.04159
r821 751 810 0.563197
r822 751 802 5.44423
r823 751 798 8.16635
r824 751 790 5.44423
r825 751 786 1.63327
r826 751 778 5.44423
r827 751 772 5.44423
r828 751 768 8.16635
r829 751 760 5.44423
r830 751 754 3.26654
r831 749 750 8
r832 746 747 8
r833 741 744 0.0314516
r834 741 743 0.0314516
r835 741 742 8
r836 739 743 0.129278
r837 736 739 0.0310382
r838 736 738 0.0310382
r839 736 737 8
r840 734 738 0.134333
r841 731 734 0.0310382
r842 731 733 0.0310382
r843 731 732 8
r844 729 733 0.134333
r845 726 729 0.0310382
r846 726 728 0.0310382
r847 726 727 8
r848 724 728 0.133611
r849 721 724 0.0310382
r850 721 723 0.0310382
r851 721 722 8
r852 719 723 0.132167
r853 716 719 0.0310382
r854 716 718 0.0310382
r855 716 717 8
r856 714 718 0.139389
r857 711 714 0.0310382
r858 711 713 0.0310382
r859 711 712 8
r860 709 713 0.133611
r861 707 864 8
r862 706 709 0.0309013
r863 706 708 0.031175
r864 706 707 8
r865 704 708 0.134333
r866 701 704 0.0309013
r867 701 703 0.031175
r868 701 702 8
r869 699 703 0.130722
r870 696 699 0.0309013
r871 696 698 0.031175
r872 696 697 8
r873 694 698 0.135778
r874 691 694 0.0309013
r875 691 693 0.031175
r876 691 692 8
r877 689 693 0.137944
r878 686 689 0.0309013
r879 686 688 0.031175
r880 686 687 8
r881 684 688 0.128556
r882 681 684 0.0309013
r883 681 683 0.031175
r884 681 682 8
r885 679 683 0.137222
r886 676 679 0.0309013
r887 676 678 0.031175
r888 676 677 8
r889 672 673 8
r890 669 672 0.197889
r891 669 670 8
r892 666 669 0.3185
r893 666 667 8
r894 663 666 0.193556
r895 663 664 8
r896 660 663 0.200056
r897 660 661 8
r898 657 660 0.199333
r899 657 658 8
r900 654 657 0.2015
r901 654 655 8
r902 651 654 0.195
r903 651 652 8
r904 648 651 0.2015
r905 648 649 8
r906 646 876 8
r907 645 648 0.197022
r908 645 646 8
r909 642 645 0.2015
r910 642 643 8
r911 639 642 0.198611
r912 639 640 8
r913 636 639 0.203667
r914 636 637 8
r915 633 636 0.195722
r916 633 634 8
r917 630 633 0.198611
r918 630 631 8
r919 627 630 0.200056
r920 627 628 8
r921 625 749 0.0181587
r922 625 627 0.166978
r923 624 746 0.00715299
r924 623 749 0.0181587
r925 623 624 0.0938889
r926 620 621 8
r927 617 620 0.197889
r928 617 744 0.286
r929 617 618 8
r930 587 746 0.0275239
r931 587 678 0.134333
r932 584 585 8
r933 582 746 0.0275239
r934 582 584 0.474356
r935 579 580 8
r936 576 579 0.200778
r937 576 577 8
r938 573 576 0.316333
r939 573 574 8
r940 570 573 0.192833
r941 570 571 8
r942 567 570 0.199333
r943 567 568 8
r944 564 567 0.198611
r945 564 565 8
r946 561 564 0.205111
r947 561 562 8
r948 558 561 0.191389
r949 558 559 8
r950 555 558 0.205111
r951 555 556 8
r952 553 810 8
r953 552 555 0.197744
r954 552 553 8
r955 549 552 0.198611
r956 549 550 8
r957 546 549 0.198611
r958 546 547 8
r959 543 546 0.203667
r960 543 544 8
r961 540 543 0.195722
r962 540 541 8
r963 537 540 0.200056
r964 537 538 8
r965 534 537 0.200056
r966 534 535 8
r967 531 534 0.198611
r968 531 532 8
r969 527 531 0.505556
r970 527 528 8
r971 523 1426 0.198947
r972 521 1422 0.198947
r973 521 522 0.0102777
r974 520 936 0.0643023
r975 520 522 0.0267115
r976 518 1417 0.198947
r977 518 519 0.0102777
r978 517 936 0.0846512
r979 517 519 0.0267115
r980 515 1412 0.198947
r981 515 516 0.0102777
r982 513 1406 0.198947
r983 513 514 0.0102777
r984 511 1402 0.198947
r985 511 512 0.0102777
r986 509 1397 0.198947
r987 509 510 0.0102777
r988 507 1392 0.198947
r989 507 508 0.0102777
r990 505 1387 0.198947
r991 505 506 0.0102777
r992 503 504 0.421053
r993 501 1382 0.198947
r994 501 503 0.0102777
r995 499 1377 0.198947
r996 499 500 0.0102777
r997 497 1367 0.198947
r998 497 498 0.0102777
r999 495 1362 0.198947
r1000 495 496 0.0102777
r1001 493 1357 0.198947
r1002 493 494 0.0102777
r1003 491 1352 0.198947
r1004 491 492 0.0102777
r1005 489 1347 0.198947
r1006 489 490 0.0102777
r1007 487 1342 0.152895
r1008 487 488 0.0102777
r1009 486 1336 0.178684
r1010 484 910 0.0617204
r1011 484 485 0.0249793
r1012 483 1326 0.293632
r1013 483 485 0.0119263
r1014 481 1594 0.215269
r1015 481 482 0.0249793
r1016 480 898 0.0617204
r1017 480 482 0.0249793
r1018 479 1316 0.398632
r1019 479 482 0.0119263
r1020 477 892 0.0617204
r1021 477 478 0.0249793
r1022 476 1311 0.398632
r1023 476 478 0.0119263
r1024 474 1297 0.200789
r1025 474 475 0.0102777
r1026 473 882 0.0683721
r1027 473 475 0.0267115
r1028 471 1301 0.200789
r1029 469 673 8
r1030 467 1292 0.196184
r1031 467 469 0.0102777
r1032 466 882 0.0854651
r1033 466 469 0.0267115
r1034 464 670 8
r1035 462 1287 0.198026
r1036 462 464 0.0102777
r1037 460 667 8
r1038 458 1281 0.198026
r1039 458 460 0.0102777
r1040 456 664 8
r1041 454 1277 0.198026
r1042 454 456 0.0102777
r1043 452 661 8
r1044 450 1272 0.198026
r1045 450 452 0.0102777
r1046 448 658 8
r1047 446 1267 0.198026
r1048 446 448 0.0102777
r1049 444 655 8
r1050 442 1262 0.198026
r1051 442 444 0.0102777
r1052 440 652 8
r1053 438 1257 0.198026
r1054 438 440 0.0102777
r1055 436 649 8
r1056 434 1252 0.198026
r1057 434 436 0.0102777
r1058 432 643 8
r1059 430 1242 0.198026
r1060 430 432 0.0102777
r1061 428 640 8
r1062 426 1237 0.198026
r1063 426 428 0.0102777
r1064 424 637 8
r1065 422 1232 0.198026
r1066 422 424 0.0102777
r1067 420 634 8
r1068 418 1227 0.198026
r1069 418 420 0.0102777
r1070 416 631 8
r1071 414 1222 0.198026
r1072 414 416 0.0102777
r1073 412 628 8
r1074 410 1217 0.270789
r1075 410 412 0.0102777
r1076 408 750 8
r1077 406 1211 0.198026
r1078 406 408 0.0102777
r1079 405 1201 0.202632
r1080 403 1197 0.202632
r1081 403 404 0.0102777
r1082 402 870 0.0683721
r1083 402 404 0.0267115
r1084 400 747 8
r1085 398 1111 0.198026
r1086 398 400 0.0102777
r1087 396 742 8
r1088 394 1181 0.195263
r1089 394 396 0.0102777
r1090 392 621 8
r1091 390 1192 0.193421
r1092 390 392 0.0102777
r1093 389 870 0.0854651
r1094 389 392 0.0267115
r1095 387 618 8
r1096 385 1187 0.193421
r1097 385 387 0.0102777
r1098 383 737 8
r1099 381 1177 0.193421
r1100 381 383 0.0102777
r1101 379 732 8
r1102 377 1172 0.193421
r1103 377 379 0.0102777
r1104 375 727 8
r1105 373 1167 0.193421
r1106 373 375 0.0102777
r1107 371 722 8
r1108 369 1162 0.193421
r1109 369 371 0.0102777
r1110 367 717 8
r1111 365 1157 0.193421
r1112 365 367 0.0102777
r1113 363 712 8
r1114 361 1152 0.193421
r1115 361 363 0.0102777
r1116 359 702 8
r1117 357 1142 0.193421
r1118 357 359 0.0102777
r1119 355 697 8
r1120 353 1137 0.193421
r1121 353 355 0.0102777
r1122 351 692 8
r1123 349 1132 0.193421
r1124 349 351 0.0102777
r1125 347 687 8
r1126 345 1127 0.193421
r1127 345 347 0.0102777
r1128 343 682 8
r1129 341 1122 0.193421
r1130 341 343 0.0102777
r1131 339 677 8
r1132 337 1117 0.147368
r1133 337 339 0.0102777
r1134 335 852 0.0617204
r1135 335 336 0.0249793
r1136 334 1106 0.398632
r1137 334 336 0.0119263
r1138 332 838 0.310108
r1139 332 333 0.0249793
r1140 331 846 0.0617204
r1141 331 333 0.0249793
r1142 330 1101 0.256789
r1143 330 333 0.0119263
r1144 328 838 0.0617204
r1145 328 329 0.0249793
r1146 327 1096 0.398632
r1147 327 329 0.0119263
r1148 325 820 0.0617204
r1149 325 326 0.0249793
r1150 324 1081 0.314816
r1151 324 326 0.0119263
r1152 322 1072 0.199868
r1153 322 323 0.0102777
r1154 321 816 0.0683721
r1155 321 323 0.0267115
r1156 319 580 8
r1157 317 1067 0.196184
r1158 317 319 0.0102777
r1159 316 816 0.0854651
r1160 316 319 0.0267115
r1161 314 571 8
r1162 312 1052 0.194342
r1163 312 314 0.0102777
r1164 310 568 8
r1165 308 1047 0.194342
r1166 308 310 0.0102777
r1167 306 562 8
r1168 304 1037 0.194342
r1169 304 306 0.0102777
r1170 302 559 8
r1171 300 1032 0.194342
r1172 300 302 0.0102777
r1173 298 550 8
r1174 296 1017 0.194342
r1175 296 298 0.0102777
r1176 294 544 8
r1177 292 1007 0.194342
r1178 292 294 0.0102777
r1179 290 541 8
r1180 288 1002 0.194342
r1181 288 290 0.0102777
r1182 287 1076 0.199868
r1183 285 577 8
r1184 283 1062 0.194342
r1185 283 285 0.0102777
r1186 281 574 8
r1187 279 1056 0.194342
r1188 279 281 0.0102777
r1189 277 565 8
r1190 275 1042 0.194342
r1191 275 277 0.0102777
r1192 273 556 8
r1193 271 1027 0.194342
r1194 271 273 0.0102777
r1195 269 547 8
r1196 267 1012 0.194342
r1197 267 269 0.0102777
r1198 265 538 8